<?xml version="1.0" encoding="UTF-8"?>

<!-- generated on 2024-04-14 21:47:26.325539 by osmWebWizard.py v1_19_0+0000-baa66a0f364
<configuration>
    <net-file value="D:\!! Projekty\magister\2024-04-14-21-47-19\osm.net.xml.gz"/>
    <output-trip-file value="D:\!! Projekty\magister\2024-04-14-21-47-19\osm.passenger.trips.xml"/>
    <route-file value="D:\!! Projekty\magister\2024-04-14-21-47-19\osm.passenger.rou.xml"/>
    <prefix value="veh"/>
    <trip-attributes value="departLane=&quot;best&quot;"/>
    <fringe-start-attributes value="departSpeed=&quot;max&quot;"/>
    <vehicle-class value="passenger"/>
    <lanes value="True"/>
    <fringe-factor value="5"/>
    <allow-fringe.min-length value="1000.0"/>
    <via-edge-types value="highway.motorway,highway.motorway_link,highway.trunk_link,highway.primary_link,highway.secondary_link,highway.tertiary_link"/>
    <min-distance value="300.0"/>
    <min-distance.fringe value="10.0"/>
    <remove-loops value="True"/>
    <validate value="True"/>
    <insertion-density value="12.0"/>
</configuration>
-->

<!-- generated on 2024-04-14 21:47:26 by Eclipse SUMO duarouter Version 1.19.0
<configuration xmlns:xsi="http://www.w3.org/2001/XMLSchema-instance" xsi:noNamespaceSchemaLocation="http://sumo.dlr.de/xsd/duarouterConfiguration.xsd">

    <input>
        <net-file value="D:\!! Projekty\magister\2024-04-14-21-47-19\osm.net.xml.gz"/>
        <route-files value="D:\!! Projekty\magister\2024-04-14-21-47-19\osm.passenger.trips.xml"/>
    </input>

    <output>
        <output-file value="D:\!! Projekty\magister\2024-04-14-21-47-19\osm.passenger.trips.xml.tmp"/>
        <alternatives-output value="NUL"/>
        <write-trips value="true"/>
    </output>

    <processing>
        <remove-loops value="true"/>
    </processing>

    <time>
        <begin value="0.0"/>
        <end value="3600.0"/>
    </time>

    <report>
        <no-warnings value="true"/>
        <ignore-errors value="true"/>
        <no-step-log value="true"/>
    </report>

</configuration>
-->

<routes xmlns:xsi="http://www.w3.org/2001/XMLSchema-instance" xsi:noNamespaceSchemaLocation="http://sumo.dlr.de/xsd/routes_file.xsd">
    <vType id="veh_passenger" vClass="passenger"/>
    <trip id="veh0" type="veh_passenger" depart="0.00" departLane="best" from="-549008000" to="-1152230290"/>
    <trip id="veh1" type="veh_passenger" depart="8.72" departLane="best" from="-549008085" to="549008066"/>
    <trip id="veh2" type="veh_passenger" depart="17.44" departLane="best" from="1078784920" to="549008055"/>
    <trip id="veh3" type="veh_passenger" depart="26.16" departLane="best" from="777538774" to="-319023535#0"/>
    <trip id="veh4" type="veh_passenger" depart="34.88" departLane="best" from="1237762219" to="-1152230290"/>
    <trip id="veh5" type="veh_passenger" depart="43.60" departLane="best" from="549008063" to="319023535#0"/>
    <trip id="veh6" type="veh_passenger" depart="52.32" departLane="best" departSpeed="max" from="-1202362037" to="-549008043#2"/>
    <trip id="veh7" type="veh_passenger" depart="61.04" departLane="best" departSpeed="max" from="42373465" to="319023546#1"/>
    <trip id="veh8" type="veh_passenger" depart="69.76" departLane="best" from="549008063" to="42340613#0"/>
    <trip id="veh9" type="veh_passenger" depart="78.48" departLane="best" from="-549008085" to="-1073046199"/>
    <trip id="veh10" type="veh_passenger" depart="87.20" departLane="best" from="-549008084" to="549008060"/>
    <trip id="veh11" type="veh_passenger" depart="95.92" departLane="best" from="1046109807" to="-42340628#0"/>
    <trip id="veh12" type="veh_passenger" depart="104.64" departLane="best" from="778096187" to="549008057"/>
    <trip id="veh13" type="veh_passenger" depart="113.36" departLane="best" departSpeed="max" from="-319023546#1" to="-319023546#0"/>
    <trip id="veh14" type="veh_passenger" depart="122.08" departLane="best" from="-549118422" to="42340647"/>
    <trip id="veh15" type="veh_passenger" depart="130.80" departLane="best" from="-549008085" to="-549008071"/>
    <trip id="veh16" type="veh_passenger" depart="139.52" departLane="best" from="319023542#0" to="962307427"/>
    <trip id="veh17" type="veh_passenger" depart="148.24" departLane="best" from="1078784920" to="319023554"/>
    <trip id="veh18" type="veh_passenger" depart="156.96" departLane="best" from="549118404" to="42340647"/>
    <trip id="veh19" type="veh_passenger" depart="165.68" departLane="best" from="720901625" to="42336835#0"/>
    <trip id="veh20" type="veh_passenger" depart="174.40" departLane="best" from="549008052" to="237382742#0"/>
    <trip id="veh21" type="veh_passenger" depart="183.12" departLane="best" from="-549008067" to="1030991934"/>
    <trip id="veh22" type="veh_passenger" depart="191.84" departLane="best" from="-319023542#1" to="-549008070"/>
    <trip id="veh23" type="veh_passenger" depart="200.56" departLane="best" departSpeed="max" from="-319023546#1" to="-549118422"/>
    <trip id="veh24" type="veh_passenger" depart="209.28" departLane="best" from="-42340642#1" to="1078784922"/>
    <trip id="veh25" type="veh_passenger" depart="218.00" departLane="best" from="549008062" to="-549008048"/>
    <trip id="veh26" type="veh_passenger" depart="226.72" departLane="best" from="-549008084" to="778096187"/>
    <trip id="veh27" type="veh_passenger" depart="235.44" departLane="best" departSpeed="max" from="42373465" to="42340647"/>
    <trip id="veh28" type="veh_passenger" depart="244.16" departLane="best" departSpeed="max" from="-42340647" to="549008071"/>
    <trip id="veh29" type="veh_passenger" depart="252.88" departLane="best" departSpeed="max" from="-42340647" to="1134433961"/>
    <trip id="veh30" type="veh_passenger" depart="261.60" departLane="best" from="974006865" to="549008035"/>
    <trip id="veh31" type="veh_passenger" depart="270.32" departLane="best" from="-237382756" to="549008057"/>
    <trip id="veh32" type="veh_passenger" depart="279.04" departLane="best" from="-42340646" to="549118393#0"/>
    <trip id="veh33" type="veh_passenger" depart="287.76" departLane="best" from="-549008067" to="-1152230290"/>
    <trip id="veh34" type="veh_passenger" depart="296.48" departLane="best" from="1030991935" to="-549008084"/>
    <trip id="veh35" type="veh_passenger" depart="305.20" departLane="best" from="1152230292" to="791651315"/>
    <trip id="veh36" type="veh_passenger" depart="313.92" departLane="best" from="769716782" to="1046109806#0"/>
    <trip id="veh37" type="veh_passenger" depart="322.64" departLane="best" departSpeed="max" from="42373465" to="1202362037"/>
    <trip id="veh38" type="veh_passenger" depart="331.35" departLane="best" from="777538788" to="237264805#1"/>
    <trip id="veh39" type="veh_passenger" depart="340.07" departLane="best" from="-549008083#0" to="-549008074"/>
    <trip id="veh40" type="veh_passenger" depart="348.79" departLane="best" from="-331657131" to="-549008083#0"/>
    <trip id="veh41" type="veh_passenger" depart="357.51" departLane="best" from="42340609" to="777538789"/>
    <trip id="veh42" type="veh_passenger" depart="366.23" departLane="best" from="-42336836" to="-549008063"/>
    <trip id="veh43" type="veh_passenger" depart="374.95" departLane="best" from="974006867" to="-319023535#2"/>
    <trip id="veh44" type="veh_passenger" depart="383.67" departLane="best" departSpeed="max" from="-319023546#1" to="-237382742#2"/>
    <trip id="veh45" type="veh_passenger" depart="392.39" departLane="best" from="-319023554" to="438404111"/>
    <trip id="veh46" type="veh_passenger" depart="401.11" departLane="best" from="-549008081" to="1263276573"/>
    <trip id="veh47" type="veh_passenger" depart="409.83" departLane="best" from="288875956" to="1149133719"/>
    <trip id="veh48" type="veh_passenger" depart="418.55" departLane="best" from="974006865" to="319023546#1"/>
    <trip id="veh49" type="veh_passenger" depart="427.27" departLane="best" from="962307427" to="769716782"/>
    <trip id="veh50" type="veh_passenger" depart="435.99" departLane="best" from="-1132700068" to="549008070"/>
    <trip id="veh51" type="veh_passenger" depart="444.71" departLane="best" from="549008039#0" to="319023546#1"/>
    <trip id="veh52" type="veh_passenger" depart="453.43" departLane="best" from="-549008084" to="549008035"/>
    <trip id="veh53" type="veh_passenger" depart="462.15" departLane="best" from="-331657131" to="186938889"/>
    <trip id="veh54" type="veh_passenger" depart="470.87" departLane="best" from="194355534" to="792723120"/>
    <trip id="veh55" type="veh_passenger" depart="479.59" departLane="best" from="769716782" to="-549008083#0"/>
    <trip id="veh56" type="veh_passenger" depart="488.31" departLane="best" from="777538789" to="777538770"/>
    <trip id="veh57" type="veh_passenger" depart="497.03" departLane="best" departSpeed="max" from="-792723120" to="-549008035"/>
    <trip id="veh58" type="veh_passenger" depart="505.75" departLane="best" from="549008071" to="319023546#1"/>
    <trip id="veh59" type="veh_passenger" depart="514.47" departLane="best" from="549008078" to="319023546#1"/>
    <trip id="veh60" type="veh_passenger" depart="523.19" departLane="best" from="-1046109807" to="1046109808"/>
    <trip id="veh61" type="veh_passenger" depart="531.91" departLane="best" from="-1189727142" to="778096185"/>
    <trip id="veh62" type="veh_passenger" depart="540.63" departLane="best" from="769716782" to="709217977"/>
    <trip id="veh63" type="veh_passenger" depart="549.35" departLane="best" from="1237762219" to="-249826562"/>
    <trip id="veh64" type="veh_passenger" depart="558.07" departLane="best" from="769716782" to="792723120"/>
    <trip id="veh65" type="veh_passenger" depart="566.79" departLane="best" departSpeed="max" from="-319023546#1" to="288875955#0"/>
    <trip id="veh66" type="veh_passenger" depart="575.51" departLane="best" from="-319023535#0" to="549008083#0"/>
    <trip id="veh67" type="veh_passenger" depart="584.23" departLane="best" from="549008074" to="-42340627"/>
    <trip id="veh68" type="veh_passenger" depart="592.95" departLane="best" departSpeed="max" from="249826562" to="319023554"/>
    <trip id="veh69" type="veh_passenger" depart="601.67" departLane="best" from="-549008083#0" to="777538774"/>
    <trip id="veh70" type="veh_passenger" depart="610.39" departLane="best" from="1263276573" to="-549008048"/>
    <trip id="veh71" type="veh_passenger" depart="619.11" departLane="best" from="-319023542#1" to="549008071"/>
    <trip id="veh72" type="veh_passenger" depart="627.83" departLane="best" from="-549008043#2" to="1046107949"/>
    <trip id="veh73" type="veh_passenger" depart="636.55" departLane="best" from="974006865" to="-549008039#1"/>
    <trip id="veh74" type="veh_passenger" depart="645.27" departLane="best" from="186938890" to="319023542#0"/>
    <trip id="veh75" type="veh_passenger" depart="653.99" departLane="best" from="-42336836" to="411763899#0"/>
    <trip id="veh76" type="veh_passenger" depart="662.71" departLane="best" from="1046109807" to="42340613#0"/>
    <trip id="veh77" type="veh_passenger" depart="671.43" departLane="best" from="-319023535#0" to="-437406387#2"/>
    <trip id="veh78" type="veh_passenger" depart="680.15" departLane="best" from="-549008067" to="777538793"/>
    <trip id="veh79" type="veh_passenger" depart="688.87" departLane="best" from="720901625" to="-249826562"/>
    <trip id="veh80" type="veh_passenger" depart="697.59" departLane="best" from="-549008070" to="549008051"/>
    <trip id="veh81" type="veh_passenger" depart="706.31" departLane="best" from="549008056" to="-42340627"/>
    <trip id="veh82" type="veh_passenger" depart="715.03" departLane="best" from="778096183" to="411763917"/>
    <trip id="veh83" type="veh_passenger" depart="723.75" departLane="best" departSpeed="max" from="249826562" to="549118396"/>
    <trip id="veh84" type="veh_passenger" depart="732.47" departLane="best" from="-549008085" to="-549008036"/>
    <trip id="veh85" type="veh_passenger" depart="741.19" departLane="best" departSpeed="max" from="-319023546#1" to="186938889"/>
    <trip id="veh86" type="veh_passenger" depart="749.91" departLane="best" from="1263276573" to="248975819"/>
    <trip id="veh87" type="veh_passenger" depart="758.63" departLane="best" from="549008060" to="549008055"/>
    <trip id="veh88" type="veh_passenger" depart="767.35" departLane="best" from="974006864" to="-319023546#0"/>
    <trip id="veh89" type="veh_passenger" depart="776.07" departLane="best" from="-42336836" to="549008057"/>
    <trip id="veh90" type="veh_passenger" depart="784.79" departLane="best" from="720901625" to="-549008078"/>
    <trip id="veh91" type="veh_passenger" depart="793.51" departLane="best" from="-549008036" to="194296246"/>
    <trip id="veh92" type="veh_passenger" depart="802.23" departLane="best" from="-974646436" to="-549118422"/>
    <trip id="veh93" type="veh_passenger" depart="810.95" departLane="best" from="-549008078" to="778096183"/>
    <trip id="veh94" type="veh_passenger" depart="819.67" departLane="best" from="194296246" to="769716782"/>
    <trip id="veh95" type="veh_passenger" depart="828.39" departLane="best" from="-319023554" to="-237382756"/>
    <trip id="veh96" type="veh_passenger" depart="837.11" departLane="best" from="709217977" to="-42340641#1"/>
    <trip id="veh97" type="veh_passenger" depart="845.83" departLane="best" departSpeed="max" from="249826562" to="549008056"/>
    <trip id="veh98" type="veh_passenger" depart="854.55" departLane="best" from="-42336836" to="-249826562"/>
    <trip id="veh99" type="veh_passenger" depart="863.27" departLane="best" from="1078784920" to="974006864"/>
    <trip id="veh100" type="veh_passenger" depart="871.99" departLane="best" from="-549008083#0" to="549118396"/>
    <trip id="veh101" type="veh_passenger" depart="880.71" departLane="best" from="194355534" to="1263276573"/>
    <trip id="veh102" type="veh_passenger" depart="889.43" departLane="best" from="778096187" to="974006865"/>
    <trip id="veh103" type="veh_passenger" depart="898.15" departLane="best" from="-237382756" to="549008066"/>
    <trip id="veh104" type="veh_passenger" depart="906.87" departLane="best" departSpeed="max" from="-42340646" to="1046100143"/>
    <trip id="veh105" type="veh_passenger" depart="915.59" departLane="best" from="-319023542#1" to="549008079"/>
    <trip id="veh106" type="veh_passenger" depart="924.31" departLane="best" from="549118408" to="769716780"/>
    <trip id="veh107" type="veh_passenger" depart="933.03" departLane="best" departSpeed="max" from="-42340647" to="792723120"/>
    <trip id="veh108" type="veh_passenger" depart="941.75" departLane="best" from="-319023546#0" to="-549008035"/>
    <trip id="veh109" type="veh_passenger" depart="950.47" departLane="best" departSpeed="max" from="42340627" to="549008055"/>
    <trip id="veh110" type="veh_passenger" depart="959.19" departLane="best" from="-549008070" to="-42340627"/>
    <trip id="veh111" type="veh_passenger" depart="967.91" departLane="best" from="777538774" to="-549008074"/>
    <trip id="veh112" type="veh_passenger" depart="976.63" departLane="best" departSpeed="max" from="42340627" to="42340647"/>
    <trip id="veh113" type="veh_passenger" depart="985.35" departLane="best" from="1237762219" to="42340609"/>
    <trip id="veh114" type="veh_passenger" depart="994.06" departLane="best" from="319023535#0" to="778096186"/>
    <trip id="veh115" type="veh_passenger" depart="1002.78" departLane="best" from="-549008043#2" to="-549008066"/>
    <trip id="veh116" type="veh_passenger" depart="1011.50" departLane="best" from="-549008070" to="1202362037"/>
    <trip id="veh117" type="veh_passenger" depart="1020.22" departLane="best" from="-1189727142" to="1046100143"/>
    <trip id="veh118" type="veh_passenger" depart="1028.94" departLane="best" from="1046100143" to="549008080"/>
    <trip id="veh119" type="veh_passenger" depart="1037.66" departLane="best" from="-319023535#2" to="-549008056"/>
    <trip id="veh120" type="veh_passenger" depart="1046.38" departLane="best" from="-549008083#0" to="778096186"/>
    <trip id="veh121" type="veh_passenger" depart="1055.10" departLane="best" from="769716782" to="777538784"/>
    <trip id="veh122" type="veh_passenger" depart="1063.82" departLane="best" from="549008062" to="-42340628#1"/>
    <trip id="veh123" type="veh_passenger" depart="1072.54" departLane="best" departSpeed="max" from="42340628#0" to="974006864"/>
    <trip id="veh124" type="veh_passenger" depart="1081.26" departLane="best" departSpeed="max" from="42373465" to="549008065"/>
    <trip id="veh125" type="veh_passenger" depart="1089.98" departLane="best" from="549118393#0" to="1046100143"/>
    <trip id="veh126" type="veh_passenger" depart="1098.70" departLane="best" from="438404111" to="778096187"/>
    <trip id="veh127" type="veh_passenger" depart="1107.42" departLane="best" from="-42340642#1" to="-42336836"/>
    <trip id="veh128" type="veh_passenger" depart="1116.14" departLane="best" from="-549008085" to="42340647"/>
    <trip id="veh129" type="veh_passenger" depart="1124.86" departLane="best" from="549008056" to="549008043#0"/>
    <trip id="veh130" type="veh_passenger" depart="1133.58" departLane="best" from="42340641#0" to="-549008083#0"/>
    <trip id="veh131" type="veh_passenger" depart="1142.30" departLane="best" from="288875953#0" to="777538793"/>
    <trip id="veh132" type="veh_passenger" depart="1151.02" departLane="best" from="1263276573" to="549008085"/>
    <trip id="veh133" type="veh_passenger" depart="1159.74" departLane="best" from="1046109807" to="549008084"/>
    <trip id="veh134" type="veh_passenger" depart="1168.46" departLane="best" from="-42340642#1" to="549008081"/>
    <trip id="veh135" type="veh_passenger" depart="1177.18" departLane="best" from="549008063" to="319023554"/>
    <trip id="veh136" type="veh_passenger" depart="1185.90" departLane="best" from="1263276573" to="549008065"/>
    <trip id="veh137" type="veh_passenger" depart="1194.62" departLane="best" from="319023535#1" to="777538785"/>
    <trip id="veh138" type="veh_passenger" depart="1203.34" departLane="best" from="777538785" to="319023546#1"/>
    <trip id="veh139" type="veh_passenger" depart="1212.06" departLane="best" from="549118408" to="42340609"/>
    <trip id="veh140" type="veh_passenger" depart="1220.78" departLane="best" departSpeed="max" from="-42340646" to="-42340627"/>
    <trip id="veh141" type="veh_passenger" depart="1229.50" departLane="best" from="1030991934" to="777538789"/>
    <trip id="veh142" type="veh_passenger" depart="1238.22" departLane="best" from="549008083#0" to="769716782"/>
    <trip id="veh143" type="veh_passenger" depart="1246.94" departLane="best" from="777538784" to="-549008048"/>
    <trip id="veh144" type="veh_passenger" depart="1255.66" departLane="best" from="-549008079" to="777538785"/>
    <trip id="veh145" type="veh_passenger" depart="1264.38" departLane="best" from="1152230292" to="42340648"/>
    <trip id="veh146" type="veh_passenger" depart="1273.10" departLane="best" departSpeed="max" from="-42340646" to="778096185"/>
    <trip id="veh147" type="veh_passenger" depart="1281.82" departLane="best" from="720901625" to="962307428"/>
    <trip id="veh148" type="veh_passenger" depart="1290.54" departLane="best" from="549118393#0" to="777538784"/>
    <trip id="veh149" type="veh_passenger" depart="1299.26" departLane="best" departSpeed="max" from="-1202362037" to="549008078"/>
    <trip id="veh150" type="veh_passenger" depart="1307.98" departLane="best" from="1046109806#0" to="778096185"/>
    <trip id="veh151" type="veh_passenger" depart="1316.70" departLane="best" from="549008084" to="777538770"/>
    <trip id="veh152" type="veh_passenger" depart="1325.42" departLane="best" from="549118393#0" to="-549008084"/>
    <trip id="veh153" type="veh_passenger" depart="1334.14" departLane="best" from="549008081" to="331657131"/>
    <trip id="veh154" type="veh_passenger" depart="1342.86" departLane="best" from="-549008066" to="549118415"/>
    <trip id="veh155" type="veh_passenger" depart="1351.58" departLane="best" from="-237382742#2" to="1046107949"/>
    <trip id="veh156" type="veh_passenger" depart="1360.30" departLane="best" from="-549008083#0" to="411763899#0"/>
    <trip id="veh157" type="veh_passenger" depart="1369.02" departLane="best" departSpeed="max" from="-1202362037" to="-549008036"/>
    <trip id="veh158" type="veh_passenger" depart="1377.74" departLane="best" from="1046107949" to="777538770"/>
    <trip id="veh159" type="veh_passenger" depart="1386.46" departLane="best" from="814268085" to="-549118422"/>
    <trip id="veh160" type="veh_passenger" depart="1395.18" departLane="best" from="42340648" to="1202362037"/>
    <trip id="veh161" type="veh_passenger" depart="1403.90" departLane="best" from="974006864" to="319023546#1"/>
    <trip id="veh162" type="veh_passenger" depart="1412.62" departLane="best" from="778096183" to="-42336836"/>
    <trip id="veh163" type="veh_passenger" depart="1421.34" departLane="best" from="962307427" to="438404111"/>
    <trip id="veh164" type="veh_passenger" depart="1430.06" departLane="best" from="814268085" to="-549008083#0"/>
    <trip id="veh165" type="veh_passenger" depart="1438.78" departLane="best" from="-319023554" to="186938889"/>
    <trip id="veh166" type="veh_passenger" depart="1447.50" departLane="best" departSpeed="max" from="42340627" to="-319023535#2"/>
    <trip id="veh167" type="veh_passenger" depart="1456.22" departLane="best" from="1078784924#0" to="42336835#0"/>
    <trip id="veh168" type="veh_passenger" depart="1464.94" departLane="best" from="-549008079" to="549008065"/>
    <trip id="veh169" type="veh_passenger" depart="1473.66" departLane="best" from="1046109807" to="778096184"/>
    <trip id="veh170" type="veh_passenger" depart="1482.38" departLane="best" from="319023542#0" to="549008070"/>
    <trip id="veh171" type="veh_passenger" depart="1491.10" departLane="best" from="-1073046199" to="549008052"/>
    <trip id="veh172" type="veh_passenger" depart="1499.82" departLane="best" from="1078784916" to="-249826562"/>
    <trip id="veh173" type="veh_passenger" depart="1508.54" departLane="best" from="-437406387#2" to="1062682404"/>
    <trip id="veh174" type="veh_passenger" depart="1517.26" departLane="best" from="1030991934" to="1223056399"/>
    <trip id="veh175" type="veh_passenger" depart="1525.98" departLane="best" from="1149133719" to="1030991935"/>
    <trip id="veh176" type="veh_passenger" depart="1534.70" departLane="best" from="42340641#0" to="1237762219"/>
    <trip id="veh177" type="veh_passenger" depart="1543.42" departLane="best" from="778096183" to="549008055"/>
    <trip id="veh178" type="veh_passenger" depart="1552.14" departLane="best" from="777538784" to="42340647"/>
    <trip id="veh179" type="veh_passenger" depart="1560.86" departLane="best" departSpeed="max" from="-792723120" to="319023554"/>
    <trip id="veh180" type="veh_passenger" depart="1569.58" departLane="best" from="1046109807" to="-974646436"/>
    <trip id="veh181" type="veh_passenger" depart="1578.30" departLane="best" departSpeed="max" from="42373465" to="248975819"/>
    <trip id="veh182" type="veh_passenger" depart="1587.02" departLane="best" from="194296246" to="-549008056"/>
    <trip id="veh183" type="veh_passenger" depart="1595.74" departLane="best" departSpeed="max" from="249826562" to="777538792"/>
    <trip id="veh184" type="veh_passenger" depart="1604.46" departLane="best" from="-549008083#0" to="42340642#0"/>
    <trip id="veh185" type="veh_passenger" depart="1613.18" departLane="best" departSpeed="max" from="-319023546#1" to="319023535#1"/>
    <trip id="veh186" type="veh_passenger" depart="1621.90" departLane="best" from="42340641#0" to="549008057"/>
    <trip id="veh187" type="veh_passenger" depart="1630.62" departLane="best" from="549118396" to="549008080"/>
    <trip id="veh188" type="veh_passenger" depart="1639.34" departLane="best" from="439667057" to="-549008067"/>
    <trip id="veh189" type="veh_passenger" depart="1648.06" departLane="best" from="-549008043#2" to="-1152230290"/>
    <trip id="veh190" type="veh_passenger" depart="1656.77" departLane="best" from="709217977" to="-249826562"/>
    <trip id="veh191" type="veh_passenger" depart="1665.49" departLane="best" from="-549008085" to="438404111"/>
    <trip id="veh192" type="veh_passenger" depart="1674.21" departLane="best" from="549008039#0" to="549008060"/>
    <trip id="veh193" type="veh_passenger" depart="1682.93" departLane="best" departSpeed="max" from="42373465" to="549008065"/>
    <trip id="veh194" type="veh_passenger" depart="1691.65" departLane="best" from="-549008066" to="549008084"/>
    <trip id="veh195" type="veh_passenger" depart="1700.37" departLane="best" from="-319023554" to="1263276573"/>
    <trip id="veh196" type="veh_passenger" depart="1709.09" departLane="best" from="-437406387#2" to="792723120"/>
    <trip id="veh197" type="veh_passenger" depart="1717.81" departLane="best" from="319023527" to="319023556"/>
    <trip id="veh198" type="veh_passenger" depart="1726.53" departLane="best" from="-549008078" to="769716780"/>
    <trip id="veh199" type="veh_passenger" depart="1735.25" departLane="best" from="237264805#1" to="288875955#0"/>
    <trip id="veh200" type="veh_passenger" depart="1743.97" departLane="best" from="-437406387#2" to="974006864"/>
    <trip id="veh201" type="veh_passenger" depart="1752.69" departLane="best" departSpeed="max" from="42340627" to="792723120"/>
    <trip id="veh202" type="veh_passenger" depart="1761.41" departLane="best" from="777538774" to="42340647"/>
    <trip id="veh203" type="veh_passenger" depart="1770.13" departLane="best" from="1078784915" to="319023535#0"/>
    <trip id="veh204" type="veh_passenger" depart="1778.85" departLane="best" from="549118404" to="319023554"/>
    <trip id="veh205" type="veh_passenger" depart="1787.57" departLane="best" from="777538774" to="549008078"/>
    <trip id="veh206" type="veh_passenger" depart="1796.29" departLane="best" departSpeed="max" from="249826562" to="549008081"/>
    <trip id="veh207" type="veh_passenger" depart="1805.01" departLane="best" from="-549008078" to="439667057"/>
    <trip id="veh208" type="veh_passenger" depart="1813.73" departLane="best" from="-549008074" to="319023542#0"/>
    <trip id="veh209" type="veh_passenger" depart="1822.45" departLane="best" departSpeed="max" from="42340628#0" to="1223056399"/>
    <trip id="veh210" type="veh_passenger" depart="1831.17" departLane="best" from="-319023542#1" to="-974646436"/>
    <trip id="veh211" type="veh_passenger" depart="1839.89" departLane="best" from="-549008085" to="-1046109807"/>
    <trip id="veh212" type="veh_passenger" depart="1848.61" departLane="best" from="319023542#0" to="-42340628#0"/>
    <trip id="veh213" type="veh_passenger" depart="1857.33" departLane="best" from="-549008067" to="549008060"/>
    <trip id="veh214" type="veh_passenger" depart="1866.05" departLane="best" from="549008052" to="-249826562"/>
    <trip id="veh215" type="veh_passenger" depart="1874.77" departLane="best" from="1223056399" to="319023546#1"/>
    <trip id="veh216" type="veh_passenger" depart="1883.49" departLane="best" from="1236950840" to="-549008046#2"/>
    <trip id="veh217" type="veh_passenger" depart="1892.21" departLane="best" from="42340609" to="549008060"/>
    <trip id="veh218" type="veh_passenger" depart="1900.93" departLane="best" from="-1132700068" to="549008084"/>
    <trip id="veh219" type="veh_passenger" depart="1909.65" departLane="best" from="549008059" to="549008065"/>
    <trip id="veh220" type="veh_passenger" depart="1918.37" departLane="best" from="1078784913" to="549008081"/>
    <trip id="veh221" type="veh_passenger" depart="1927.09" departLane="best" from="709217977" to="792723120"/>
    <trip id="veh222" type="veh_passenger" depart="1935.81" departLane="best" from="1237762219" to="549008079"/>
    <trip id="veh223" type="veh_passenger" depart="1944.53" departLane="best" from="-319023546#0" to="42340647"/>
    <trip id="veh224" type="veh_passenger" depart="1953.25" departLane="best" from="186938889" to="-1152230290"/>
    <trip id="veh225" type="veh_passenger" depart="1961.97" departLane="best" from="1152230292" to="42340641#0"/>
    <trip id="veh226" type="veh_passenger" depart="1970.69" departLane="best" from="248975819" to="-42340627"/>
    <trip id="veh227" type="veh_passenger" depart="1979.41" departLane="best" departSpeed="max" from="42340628#0" to="-1152230290"/>
    <trip id="veh228" type="veh_passenger" depart="1988.13" departLane="best" from="1134433961" to="-39122228"/>
    <trip id="veh229" type="veh_passenger" depart="1996.85" departLane="best" departSpeed="max" from="-1202362037" to="549008036"/>
    <trip id="veh230" type="veh_passenger" depart="2005.57" departLane="best" from="-42340642#1" to="237382742#0"/>
    <trip id="veh231" type="veh_passenger" depart="2014.29" departLane="best" from="-237382742#2" to="1134433961"/>
    <trip id="veh232" type="veh_passenger" depart="2023.01" departLane="best" from="-549008048" to="1046109808"/>
    <trip id="veh233" type="veh_passenger" depart="2031.73" departLane="best" from="549008071" to="709217977"/>
    <trip id="veh234" type="veh_passenger" depart="2040.45" departLane="best" from="-549008066" to="709217977"/>
    <trip id="veh235" type="veh_passenger" depart="2049.17" departLane="best" from="-549008079" to="-319023527"/>
    <trip id="veh236" type="veh_passenger" depart="2057.89" departLane="best" from="-1189727142" to="319023546#1"/>
    <trip id="veh237" type="veh_passenger" depart="2066.61" departLane="best" from="974006867" to="1078784919"/>
    <trip id="veh238" type="veh_passenger" depart="2075.33" departLane="best" departSpeed="max" from="42373465" to="549118393#0"/>
    <trip id="veh239" type="veh_passenger" depart="2084.05" departLane="best" departSpeed="max" from="42373465" to="549008081"/>