<?xml version="1.0" encoding="UTF-8"?>

<!-- generated on 2024-04-09 15:13:54 by Eclipse SUMO polyconvert Version 1.19.0
<configuration xmlns:xsi="http://www.w3.org/2001/XMLSchema-instance" xsi:noNamespaceSchemaLocation="http://sumo.dlr.de/xsd/polyconvertConfiguration.xsd">

    <input>
        <net-file value="osm.net.xml.gz"/>
        <osm-files value="osm_bbox.osm.xml.gz"/>
        <osm.keep-full-type value="true"/>
        <type-file value="${SUMO_HOME}/data/typemap/osmPolyconvert.typ.xml"/>
    </input>

    <output>
        <output-file value="osm.poly.xml.gz"/>
    </output>

    <report>
        <verbose value="true"/>
    </report>

</configuration>
-->

<additional xmlns:xsi="http://www.w3.org/2001/XMLSchema-instance" xsi:noNamespaceSchemaLocation="http://sumo.dlr.de/xsd/additional_file.xsd">
    <location netOffset="-2064020.97,-6658743.79" convBoundary="-209.55,-476.53,5472.75,4508.48" origBoundary="18.539533,51.208551,18.590578,51.236598" projParameter="+proj=merc +a=6378137 +b=6378137 +lat_ts=0.0 +lon_0=0.0 +x_0=0.0 +y_0=0 +k=1.0 +units=m +nadgrids=@null +wktext +no_defs"/>

    <poly id="1016742377" type="landuse.grass" color="194,194,130" fill="1" layer="-3.00" shape="2103.900423,631.569490 2077.862794,614.118156 2080.801628,611.150366 2103.655520,623.696837 2115.666893,629.365858 2116.935935,631.907144 2116.913671,638.464733 2103.900423,631.569490"/>
    <poly id="1016742378" type="landuse.grass" color="194,194,130" fill="1" layer="-3.00" shape="2126.409224,643.493998 2129.325794,639.531008 2132.153309,641.165963 2141.648862,646.372943 2140.758306,648.167841 2146.569183,651.260043 2147.404080,649.536229 2159.738279,656.111603 2160.973925,656.840226 2159.983182,661.140880 2137.607964,649.376288 2126.409224,643.493998"/>
    <poly id="1016742379" type="landuse.grass" color="194,194,130" fill="1" layer="-3.00" shape="2170.925888,666.507814 2173.219069,661.087566 2184.339887,665.423764 2239.877181,692.827168 2239.131340,694.835333 2246.422767,710.367528 2234.211018,696.559156 2170.925888,666.507814"/>
    <poly id="1016742380" type="landuse.grass" color="194,194,130" fill="1" layer="-3.00" shape="2244.585995,698.051952 2247.413510,693.271452 2254.137207,696.932355 2255.027763,698.336294 2256.007375,700.575488 2257.788487,705.889134 2259.436015,712.073583 2260.326571,716.480894 2260.627134,718.204722 2259.213376,720.070721 2257.198493,721.936721 2244.585995,698.051952"/>
    <poly id="1016742381" type="landuse.grass" color="194,194,130" fill="1" layer="-3.00" shape="2282.423490,742.231722 2295.336551,721.634607 2286.831742,717.760436 2282.879900,717.156208 2279.440128,718.275807 2277.202606,721.332493 2275.788848,724.762380 2277.803731,732.688445 2282.423490,742.231722"/>
    <poly id="1016742382" type="landuse.grass" color="194,194,130" fill="1" layer="-3.00" shape="2239.264923,667.023182 2246.745593,675.055819 2284.215734,694.088935 2286.486651,692.027457 2239.264923,667.023182"/>
    <poly id="1016742383" type="landuse.grass" color="194,194,130" fill="1" layer="-3.00" shape="2070.960985,583.836091 2072.441534,576.692100 2114.019364,597.893069 2161.452599,622.097427 2172.094743,623.714608 2168.933269,632.920104 2178.629197,637.771654 2177.582793,639.442152 2147.804830,624.407686 2116.078775,607.880468 2084.541963,591.193343 2070.960985,583.836091"/>
    <poly id="1016742384" type="landuse.grass" color="194,194,130" fill="1" layer="-3.00" shape="2029.572399,554.833656 2027.546384,561.177930 2061.888447,579.553250 2064.393135,572.586973 2029.572399,554.833656"/>
    <poly id="1016742387" type="landuse.grass" color="194,194,130" fill="1" layer="-3.00" shape="1885.291206,461.767098 1888.664187,460.398742 1895.365620,473.247086 1903.970617,486.450869 1909.759231,495.407418 1914.200878,501.254059 1921.392117,510.121769 1927.848648,517.941000 1930.230885,520.695504 1931.399740,522.597001 1931.956337,524.143078 1932.334823,526.186743 1932.178976,528.052699 1931.588983,530.078595 1930.464656,532.157804 1928.972975,533.543943 1928.149210,534.290326 1929.529572,538.057784 1927.258655,540.030369 1925.199244,541.238800 1923.106438,542.233978 1914.267670,542.944820 1875.595279,542.500543 1873.803035,540.936692 1873.691716,537.169233 1919.755721,537.204775 1885.291206,461.767098"/>
    <poly id="1016742388" type="landuse.grass" color="194,194,130" fill="1" layer="-3.00" shape="1876.163008,552.772212 1876.229800,551.794804 1909.158105,552.025827 1924.453403,552.274622 1927.292050,552.096912 1929.863531,551.386069 1932.178976,550.604143 1932.813497,552.239080 1930.798614,553.056549 1928.639016,553.323115 1876.163008,552.772212"/>
    <poly id="1016742389" type="landuse.grass" color="194,194,130" fill="1" layer="-3.00" shape="1953.864013,552.025827 1956.813979,543.797830 1958.305660,543.513493 1960.175828,543.389096 1961.255627,543.513493 1963.159190,544.402045 1976.784696,552.772212 1953.864013,552.025827"/>
    <poly id="1016742390" type="landuse.grass" color="194,194,130" fill="1" layer="-3.00" shape="1952.483651,562.439677 1952.116297,555.864378 1976.851488,556.415281 2002.009693,569.743596 2008.577543,573.671010 2010.670349,575.714688 2011.683356,577.580655 2012.084106,580.228552 2011.905995,582.965306 2011.416190,586.057483 2010.592425,589.309602 2008.878105,595.458420 2007.764910,605.765697 1998.970670,606.476545 1999.404816,578.966803 1975.638105,561.853231 1952.483651,562.439677"/>
    <poly id="1016742391" type="landuse.grass" color="194,194,130" fill="1" layer="-3.00" shape="2020.744763,609.053366 2028.058453,608.644629 2024.963772,593.556906 2023.327375,596.649087 2021.980409,601.091879 2021.201173,605.197020 2020.744763,609.053366"/>
    <poly id="1016742392" type="landuse.grass" color="194,194,130" fill="1" layer="-3.00" shape="2031.531622,741.129890 2025.342258,741.325376 2025.520369,743.902240 2026.422057,746.141447 2027.357141,747.296594 2029.327496,748.416198 2031.976900,749.127057 2031.531622,741.129890"/>
    <poly id="1016742393" type="landuse.grass" color="194,194,130" fill="1" layer="-3.00" shape="2022.804173,765.210272 2022.915493,763.557520 2024.407174,761.886997 2026.010175,760.323104 2027.579780,759.043555 2028.692975,758.634810 2022.804173,765.210272"/>
    <poly id="1016742394" type="landuse.grass" color="194,194,130" fill="1" layer="-3.00" shape="2104.022874,696.612471 2067.888567,743.191381 2044.533738,741.396462 2049.598775,707.648503 2071.840409,610.084095 2073.632653,607.027451 2039.223798,589.114119 2034.971394,588.740925 2032.433309,589.647254 2029.438815,591.282199 2028.470336,594.125583 2029.895225,599.936753 2031.531622,606.885282 2032.054823,610.172951 2033.023303,652.273006 2034.514984,706.528905 2035.494595,749.677973 2076.259793,753.125643 2084.720074,745.075158 2104.768715,746.923393 2104.022874,696.612471"/>
    <poly id="1016742395" type="natural.scrub" color="140,196,107" fill="1" layer="-4.00" shape="2104.022874,696.612471 2067.888567,743.191381 2044.533738,741.396462 2049.598775,707.648503 2071.840409,610.084095 2077.862794,614.118156 2103.900423,631.569490 2104.022874,696.612471"/>
    <poly id="1016742396" type="landuse.grass" color="194,194,130" fill="1" layer="-3.00" shape="2006.150778,742.516065 2012.718628,741.840749 2012.952399,753.107872 2012.573912,755.418167 2011.226946,762.740030 2004.291742,761.176137 2005.928139,752.663585 2006.150778,742.516065"/>
    <poly id="1016742397" type="landuse.grass" color="194,194,130" fill="1" layer="-3.00" shape="1992.046598,820.515447 1998.169170,821.635061 1997.200691,827.606336 1997.345406,830.965181 1997.501253,835.514730 1990.554917,835.603588 1990.332278,830.894094 1990.777556,825.669226 1992.046598,820.515447"/>
    <poly id="1016742398" type="landuse.grass" color="194,194,130" fill="1" layer="-3.00" shape="1992.347161,885.915365 1998.247094,885.826506 1995.853725,887.781403 1992.569800,890.020649 1992.347161,885.915365"/>
    <poly id="1016742399" type="landuse.grass" color="194,194,130" fill="1" layer="-3.00" shape="1995.853725,904.202555 2001.898373,901.661184 2000.851970,899.866230 1999.137650,899.119814 1997.200691,898.888780 1995.330523,898.746605 1993.694127,899.350847 1995.853725,904.202555"/>
    <poly id="1016742400" type="landuse.grass" color="194,194,130" fill="1" layer="-3.00" shape="2045.713725,1014.744069 2051.313095,1011.900538 2053.483825,1016.467959 2055.042298,1020.644397 2056.021910,1025.869391 2050.044053,1027.877637 2048.852934,1023.327982 2047.728607,1019.666933 2045.713725,1014.744069"/>
    <poly id="1016742401" type="landuse.grass" color="194,194,130" fill="1" layer="-3.00" shape="2067.732720,1101.258951 2074.311702,1099.908260 2075.280181,1103.729295 2068.712331,1105.293254 2067.732720,1101.258951"/>
    <poly id="1016742402" type="landuse.grass" color="194,194,130" fill="1" layer="-3.00" shape="2068.289317,1114.836966 2072.886812,1132.609270 2077.818266,1151.341321 2080.578989,1163.071090 2074.823772,1166.092397 2064.370871,1115.618946 2068.289317,1114.836966"/>
    <poly id="1016742403" type="landuse.grass" color="194,194,130" fill="1" layer="-3.00" shape="2093.358467,1213.420425 2097.443892,1229.433462 2089.217382,1232.668064 2085.365727,1214.966633 2093.358467,1213.420425"/>
    <poly id="1016742404" type="landuse.grass" color="194,194,130" fill="1" layer="-3.00" shape="2091.098681,1240.861210 2099.915185,1240.168080 2101.328942,1246.886109 2100.727817,1249.356497 2099.614622,1251.524752 2096.920690,1253.835188 2086.846277,1261.370768 2080.055788,1266.080510 2081.870295,1268.835265 2059.895828,1284.510731 2049.376136,1291.761977 2035.194033,1298.480048 2019.063839,1304.149536 1986.146665,1313.320253 1969.871756,1317.283570 1959.429987,1318.847569 1950.847255,1319.291888 1929.796739,1317.887842 1918.442151,1317.141388 1902.701575,1316.466024 1898.716337,1296.738325 1922.683423,1301.981268 1960.153564,1308.450530 2014.900490,1298.320094 2045.179391,1283.017828 2092.412251,1246.583976 2091.098681,1240.861210"/>
    <poly id="1016742405" type="landuse.grass" color="194,194,130" fill="1" layer="-3.00" shape="2334.743651,1147.431402 2334.799310,1152.389890 2317.032720,1157.170658 2284.494032,1164.332929 2231.194260,1171.655159 2165.204066,1181.358899 2119.529679,1187.774749 2111.948822,1183.775950 2140.502271,1180.008195 2231.617274,1167.940726 2290.204722,1158.592449 2334.743651,1147.431402"/>
    <poly id="1016742406" type="landuse.grass" color="194,194,130" fill="1" layer="-3.00" shape="2346.899739,1146.720507 2344.584294,1142.010835 2348.580663,1139.824837 2433.506303,1095.127526 2435.420998,1099.694993 2387.353242,1125.375938 2356.450951,1141.637616 2346.899739,1146.720507"/>
    <poly id="1016742407" type="amenity.parcel_locker" color="237,199,199" fill="1" layer="-1.00" shape="2353.311742,1093.421390 2379.594273,1082.527015 2381.230670,1086.259181 2354.658707,1097.011383 2353.311742,1093.421390"/>
    <poly id="1017117509" type="building.farm_auxiliary" color="255,230,230" fill="1" layer="-1.00" shape="3255.511687,2060.323842 3254.676791,2055.755838 3305.816965,2046.299900 3308.176938,2059.008541 3305.382819,2059.523997 3303.991325,2051.987681 3299.627601,2052.805300 3300.384573,2056.875621 3287.738679,2059.204059 3286.870387,2054.529409 3255.511687,2060.323842"/>
    <poly id="1017117510" type="amenity.parking" color="184,184,179" fill="1" layer="-1.00" shape="2997.506503,1495.297118 2995.202189,1481.576287 2996.504627,1473.667270 2999.009316,1466.255905 3007.825820,1457.849257 3014.527253,1452.339620 3022.041319,1491.102664 2997.506503,1495.297118"/>
    <poly id="1027411527" type="amenity.parking" color="184,184,179" fill="1" layer="-1.00" shape="4561.233654,3068.297598 4449.658128,3137.857452 4454.244491,3145.323661 4565.597378,3075.692637 4561.233654,3068.297598"/>
    <poly id="1027411530" type="landuse.meadow" color="194,194,130" fill="1" layer="-3.00" shape="4204.354498,3268.588202 4237.449783,3250.775704 4286.897901,3223.950367 4315.573802,3206.777931 4309.863112,3197.107341 4317.054351,3192.947569 4322.753909,3202.227064 4355.704478,3181.588202 4339.696735,3156.185230 4321.495999,3128.115837 4290.348805,3160.060556 4249.984358,3099.850998 4244.117821,3073.754994 4165.437204,2962.101303 4150.564920,2928.930798 4150.776428,2975.877946 4189.693721,3195.436322 4204.354498,3268.588202"/>
    <poly id="1027432673" type="landuse.grass" color="194,194,130" fill="1" layer="-3.00" shape="4264.533815,2007.907484 4261.561585,2006.947676 4262.029127,1977.513616 4262.173842,1974.012107 4263.620995,1960.237151 4264.389100,1950.070360 4264.800982,1941.929827 4265.023621,1931.265385 4265.212864,1922.609423 4264.723058,1909.865446 4264.800982,1906.630576 4265.557954,1903.342386 4266.704545,1901.156185 4268.719428,1899.076628 4270.812234,1897.476969 4273.405979,1896.197242 4277.636119,1896.001728 4272.804853,1930.447778 4272.125804,1944.098265 4271.413360,1962.636658 4269.387345,1978.704484 4268.073775,1988.302537 4264.533815,2007.907484"/>
    <poly id="1027432674" type="landuse.grass" color="194,194,130" fill="1" layer="-3.00" shape="4197.140995,2100.049586 4199.634552,2094.486193 4204.944492,2096.885739 4203.252435,2097.952204 4201.983393,2098.663181 4200.558504,2099.231962 4198.899843,2099.747421 4197.140995,2100.049586"/>
    <poly id="1027432675" type="landuse.grass" color="194,194,130" fill="1" layer="-3.00" shape="4228.599884,2123.511861 4226.573869,2122.072128 4225.004264,2120.383554 4223.746354,2118.357264 4222.655423,2116.153231 4222.054297,2113.558160 4221.931846,2111.016414 4222.365992,2108.136953 4223.301076,2105.772953 4226.907827,2107.692592 4228.343849,2109.470037 4229.312328,2111.602970 4229.880058,2114.340236 4230.002509,2116.988631 4229.857794,2119.939192 4228.599884,2123.511861"/>
    <poly id="1027432676" type="landuse.grass" color="194,194,130" fill="1" layer="-3.00" shape="4179.719495,2137.056023 4179.953266,2139.580003 4180.008926,2141.393003 4179.853079,2143.277102 4179.541384,2145.125652 4179.007050,2147.009752 4178.316870,2148.947176 4172.973534,2160.660600 4161.006689,2187.215832 4156.876736,2198.271649 4152.000942,2212.260302 4150.420205,2216.046307 4148.550038,2219.672342 4144.965550,2225.982358 4139.778062,2223.316154 4147.058357,2208.118805 4153.192060,2194.307906 4157.900875,2184.514091 4164.279482,2170.365514 4179.719495,2137.056023"/>
    <poly id="1027432677" type="landuse.grass" color="194,194,130" fill="1" layer="-3.00" shape="4226.295570,2099.427481 4229.323460,2101.044954 4231.471926,2101.204924 4232.674177,2100.742788 4233.854163,2099.765195 4235.201129,2097.987753 4240.177111,2086.416613 4244.585362,2075.520916 4247.245898,2068.677785 4251.887921,2055.649192 4229.501571,2092.673203 4228.132342,2095.410462 4226.295570,2099.427481"/>
    <poly id="1027432678" type="landuse.grass" color="194,194,130" fill="1" layer="-3.00" shape="4241.301437,1963.863073 4241.935959,1990.044407 4241.746715,1992.532794 4239.130707,2007.125418 4235.446032,2022.908944 4232.162107,2035.315385 4227.486689,2049.037144 4224.447667,2058.208696 4218.859428,2072.623694 4213.427037,2085.634540 4211.657057,2088.371797 4212.202523,2088.585090 4209.987265,2092.033324 4207.460312,2090.877987 4206.948243,2090.024816 4215.709086,2070.810708 4222.288068,2056.893395 4225.961612,2048.148429 4230.703822,2034.871028 4234.366233,2022.215748 4237.037901,2006.752160 4238.451658,1991.910697 4239.909944,1977.886873 4241.301437,1963.863073"/>
    <poly id="1027432679" type="landuse.grass" color="194,194,130" fill="1" layer="-3.00" shape="4245.854405,1918.077044 4242.882174,1918.148140 4242.948966,1869.678503 4244.384987,1869.607408 4245.331203,1884.342004 4247.268162,1908.372429 4247.056655,1913.438023 4245.854405,1918.077044"/>
    <poly id="1027432680" type="landuse.grass" color="194,194,130" fill="1" layer="-3.00" shape="4173.685979,1141.566526 4170.079227,1129.214757 4172.962402,1129.836788 4177.804800,1133.018034 4180.276093,1141.264396 4173.685979,1141.566526"/>
    <poly id="1027432681" type="landuse.grass" color="194,194,130" fill="1" layer="-3.00" shape="4167.607935,1116.240977 4170.390922,1113.983896 4173.062590,1106.981620 4172.038450,1098.948558 4170.591297,1093.687974 4166.583795,1094.203369 4167.507747,1108.421174 4167.607935,1116.240977"/>
    <poly id="1027432682" type="landuse.grass" color="194,194,130" fill="1" layer="-3.00" shape="4164.724760,1086.170320 4168.131136,1085.566065 4160.405563,1059.618663 4156.698624,1055.602154 4155.774673,1055.388888 4160.505751,1070.726273 4164.724760,1086.170320"/>
    <poly id="1027432683" type="landuse.grass" color="194,194,130" fill="1" layer="-3.00" shape="4147.414579,1034.240050 4148.416454,1031.485374 4148.772677,1028.748470 4148.694753,1025.460633 4140.412583,1009.803435 4130.538544,992.831139 4124.861250,983.749641 4123.503152,982.718865 4121.922416,980.479594 4121.343554,978.737939 4115.922295,972.002358 4108.875771,964.093833 4103.298665,957.340492 4101.172462,957.233860 4100.348698,958.158001 4107.116923,966.262012 4114.720044,978.133691 4123.458624,992.173574 4132.820594,1007.386436 4139.722402,1019.293719 4147.414579,1034.240050"/>
    <poly id="1027432684" type="landuse.grass" color="194,194,130" fill="1" layer="-3.00" shape="4090.252020,950.142858 4094.248390,947.121631 4092.734445,945.166720 4091.454271,944.224808 4090.040513,943.353984 4088.259401,942.500933 4086.611873,941.950003 4084.919817,941.594565 4083.316816,941.399074 4081.635892,941.274671 4079.331578,941.274671 4077.717446,941.310215 4075.758223,941.274671 4074.110694,941.079180 4071.828645,940.617110 4069.902817,940.172813 4068.099442,939.799603 4066.173615,939.461936 4064.281183,939.301989 4062.366488,939.355305 4060.496320,939.675199 4058.904452,940.172813 4057.156736,940.777058 4055.954485,942.021091 4054.896950,942.518705 4054.596387,942.145494 4052.748484,943.371756 4059.772744,943.549475 4066.184746,943.851598 4071.405631,943.922686 4075.546716,944.473615 4081.168350,945.966456 4085.298303,947.530385 4090.252020,950.142858"/>
    <poly id="1027432685" type="landuse.grass" color="194,194,130" fill="1" layer="-3.00" shape="4106.538062,930.131692 4105.803353,927.927979 4105.235624,925.528776 4105.001853,923.165117 4105.157700,919.930637 4105.580714,917.407033 4106.404478,914.723483 4107.584465,912.164337 4109.053882,910.049488 4110.623487,908.378935 4112.115168,907.099363 4113.751565,905.961966 4109.521424,934.663524 4107.562201,932.104371 4106.538062,930.131692"/>
    <poly id="1027432686" type="landuse.grass" color="194,194,130" fill="1" layer="-3.00" shape="4066.841531,876.602953 4076.292556,879.784100 4083.250024,882.076659 4082.838142,883.285140 4080.700808,884.884601 4076.927077,883.996012 4074.678424,883.338456 4072.474298,882.520954 4070.771109,881.401332 4068.856414,879.855187 4067.142094,878.166869 4065.717205,876.674040 4066.841531,876.602953"/>
    <poly id="1027432687" type="landuse.grass" color="194,194,130" fill="1" layer="-3.00" shape="4042.006153,930.469358 4041.694458,922.934082 4042.239924,913.710488 4043.030292,903.171789 4043.831793,890.109508 4044.265939,889.523038 4049.843045,886.075311 4050.488698,887.568141 4051.089824,889.700756 4051.869060,893.255116 4052.191886,895.547679 4051.980379,897.644753 4051.379254,901.572325 4050.766997,904.451360 4049.976629,907.579203 4049.520219,911.133570 4049.308712,915.167780 4049.186260,919.237535 4048.985885,920.979177 4048.407024,922.454242 4046.893079,924.835672 4044.978383,927.377051 4042.006153,930.469358"/>
    <poly id="1027432688" type="landuse.grass" color="194,194,130" fill="1" layer="-3.00" shape="4088.827131,887.088303 4087.802992,884.973460 4088.148082,883.924925 4100.037004,889.416408 4098.033253,889.469723 4095.706675,889.025428 4092.489542,888.243469 4088.827131,887.088303"/>
    <poly id="1027432689" type="landuse.grass" color="194,194,130" fill="1" layer="-3.00" shape="4118.037365,945.575474 4118.248872,943.816054 4119.005845,943.105178 4125.651618,951.653472 4131.685135,959.402037 4139.032221,969.905265 4143.774432,977.067372 4146.190064,980.657314 4143.741036,981.297106 4139.288256,974.632610 4138.609207,972.713237 4137.006207,970.225160 4135.670373,969.087754 4128.590453,959.117686 4123.892770,953.004139 4118.037365,945.575474"/>
    <poly id="1027432690" type="landuse.grass" color="194,194,130" fill="1" layer="-3.00" shape="4149.451726,990.662952 4151.043594,988.370363 4154.227332,994.004092 4157.166166,999.246840 4159.693119,1003.778710 4165.192302,1014.281995 4168.064344,1020.075691 4172.917874,1031.076615 4176.090480,1038.149915 4181.444947,1052.616433 4184.495101,1061.147069 4190.773521,1079.630145 4190.094472,1080.287717 4189.070332,1080.785339 4188.892221,1080.216628 4189.337499,1079.878956 4188.035061,1077.497480 4185.129622,1068.611383 4183.281719,1062.799881 4180.777030,1055.922053 4176.079348,1043.872539 4172.283353,1035.110884 4167.596803,1024.554256 4164.134766,1017.409879 4160.093869,1009.607943 4156.720888,1003.227777 4152.145657,995.212590 4149.451726,990.662952"/>
    <poly id="1027432691" type="landuse.grass" color="194,194,130" fill="1" layer="-3.00" shape="4177.726876,1149.297499 4181.233440,1149.119776 4183.070212,1162.022519 4187.890346,1199.966654 4189.036937,1210.239148 4190.528618,1225.399098 4190.528618,1228.989149 4189.036937,1229.611188 4187.545255,1214.877770 4185.875463,1197.336329 4184.472837,1181.216720 4182.636066,1170.695449 4177.726876,1149.297499"/>
    <poly id="1027432692" type="landuse.grass" color="194,194,130" fill="1" layer="-3.00" shape="4202.629046,1145.263174 4204.287707,1145.618622 4206.836923,1185.766463 4207.360125,1196.287754 4208.239549,1207.608820 4208.317472,1213.384880 4207.360125,1213.740330 4206.658812,1208.923984 4205.957499,1192.608855 4204.643929,1174.729786 4203.497338,1152.283256 4202.629046,1145.263174"/>
    <poly id="1027432693" type="landuse.grass" color="194,194,130" fill="1" layer="-3.00" shape="4176.736133,1232.348159 4180.799294,1232.419249 4179.830815,1222.075637 4178.773279,1210.487963 4173.429944,1211.287725 4174.031069,1212.976113 4174.576535,1216.139618 4176.736133,1232.348159"/>
    <poly id="1027432695" type="landuse.grass" color="194,194,130" fill="1" layer="-3.00" shape="4177.593293,1241.074480 4176.736133,1232.348159 4174.576535,1216.139618 4177.014431,1242.087516 4177.726876,1248.236825 4178.717620,1256.803211 4180.153641,1268.817493 4180.554391,1272.460880 4184.829060,1272.300927 4183.682469,1256.696575 4179.129502,1256.803211 4178.283474,1248.219052 4182.201920,1248.112417 4181.756642,1241.092253 4177.593293,1241.074480"/>
    <poly id="1027432696" type="landuse.grass" color="194,194,130" fill="1" layer="-3.00" shape="4185.741880,1315.932843 4189.382027,1316.039479 4185.708484,1278.965665 4181.355892,1279.658798 4184.517365,1306.886532 4185.741880,1315.932843"/>
    <poly id="1027432697" type="landuse.grass" color="194,194,130" fill="1" layer="-3.00" shape="4195.894217,1447.380949 4202.072449,1447.220992 4201.482456,1445.710287 4200.358129,1437.534709 4194.758758,1437.730212 4195.894217,1447.380949"/>
    <poly id="1027432698" type="landuse.grass" color="194,194,130" fill="1" layer="-3.00" shape="4193.690091,1428.701540 4198.031551,1428.452718 4197.864572,1421.965588 4195.226300,1416.171608 4193.044438,1415.034140 4192.075959,1415.105232 4193.690091,1428.701540"/>
    <poly id="1027432699" type="landuse.grass" color="194,194,130" fill="1" layer="-3.00" shape="4206.536360,1421.965588 4208.996521,1421.965588 4207.593896,1415.300734 4205.779388,1411.941649 4203.352623,1409.080208 4200.669823,1406.023266 4197.608537,1402.770822 4197.897968,1406.663091 4201.393400,1410.004400 4204.265443,1413.630078 4205.812784,1417.486806 4206.536360,1421.965588"/>
    <poly id="1027432700" type="landuse.grass" color="194,194,130" fill="1" layer="-3.00" shape="4209.965001,1447.061035 4208.295208,1444.146263 4207.582764,1437.054839 4209.909341,1437.410298 4210.677446,1446.936624 4209.965001,1447.061035"/>
    <poly id="1027432701" type="landuse.grass" color="194,194,130" fill="1" layer="-3.00" shape="4204.087332,1530.719005 4207.170882,1530.310222 4207.237673,1514.012225 4207.493708,1511.008563 4202.395275,1511.417346 4204.087332,1530.719005"/>
    <poly id="1027432702" type="landuse.grass" color="194,194,130" fill="1" layer="-3.00" shape="4235.023018,1873.695411 4234.778115,1875.828284 4233.932087,1877.694547 4232.384746,1879.329750 4230.792877,1880.253995 4228.377245,1880.645022 4225.727841,1880.236222 4222.521839,1879.489716 4223.111833,1874.975135 4224.748229,1874.992909 4234.933963,1871.846923 4235.023018,1873.695411"/>
    <poly id="1027432703" type="landuse.grass" color="194,194,130" fill="1" layer="-3.00" shape="4233.175115,1918.308106 4234.766983,1918.272558 4234.755851,1896.641592 4234.800379,1890.669536 4234.733587,1888.749947 4233.575865,1886.670393 4231.193628,1885.230702 4227.987626,1884.253135 4224.970868,1883.542176 4224.124840,1886.954777 4227.776119,1887.630187 4231.449662,1893.371179 4233.175115,1918.308106"/>
    <poly id="1027432704" type="landuse.grass" color="194,194,130" fill="1" layer="-3.00" shape="4240.800500,1852.562232 4241.178986,1859.494051 4240.822764,1863.084380 4243.628015,1862.835545 4242.514820,1851.531346 4241.156722,1836.459105 4238.941464,1811.540202 4237.227144,1792.291201 4236.971109,1788.985283 4235.501692,1788.149917 4236.459040,1803.275390 4238.685429,1827.678827 4239.742965,1840.049424 4240.800500,1852.562232"/>
    <poly id="1027432705" type="landuse.grass" color="194,194,130" fill="1" layer="-3.00" shape="4234.321705,1778.463230 4231.750225,1750.096411 4233.408886,1750.345243 4236.225269,1776.970237 4234.321705,1778.463230"/>
    <poly id="1027432706" type="landuse.grass" color="194,194,130" fill="1" layer="-3.00" shape="4230.258544,1732.767106 4229.757606,1725.870942 4231.082308,1726.617434 4231.750225,1732.020614 4230.258544,1732.767106"/>
    <poly id="1027432707" type="landuse.grass" color="194,194,130" fill="1" layer="-3.00" shape="4228.677807,1716.095461 4224.948604,1677.118068 4226.941223,1678.184479 4230.414391,1714.264781 4228.677807,1716.095461"/>
    <poly id="1027432708" type="landuse.grass" color="194,194,130" fill="1" layer="-3.00" shape="4224.202764,1667.662568 4221.876186,1637.465472 4224.035784,1638.371916 4226.273306,1666.329557 4224.202764,1667.662568"/>
    <poly id="1027432709" type="landuse.grass" color="194,194,130" fill="1" layer="-3.00" shape="4220.462429,1629.094195 4219.716588,1613.666896 4221.464304,1614.982126 4222.544103,1627.761190 4220.462429,1629.094195"/>
    <poly id="1027432710" type="landuse.grass" color="194,194,130" fill="1" layer="-3.00" shape="4218.803768,1603.713816 4216.154364,1557.840936 4217.890949,1559.173930 4220.629408,1602.629642 4218.803768,1603.713816"/>
    <poly id="1027432711" type="landuse.grass" color="194,194,130" fill="1" layer="-3.00" shape="4215.074565,1548.563306 4214.573628,1539.676697 4216.232288,1539.605605 4216.978129,1547.390273 4215.074565,1548.563306"/>
    <poly id="1027432712" type="landuse.grass" color="194,194,130" fill="1" layer="-3.00" shape="4214.161746,1528.479584 4214.417780,1515.718448 4215.241545,1515.469624 4215.742482,1528.070801 4214.161746,1528.479584"/>
    <poly id="1027432713" type="landuse.grass" color="194,194,130" fill="1" layer="-3.00" shape="4186.298477,1385.744392 4186.209421,1382.847414 4192.265202,1382.260909 4195.170640,1380.430304 4199.066823,1374.387534 4200.725483,1368.664678 4201.304344,1363.937105 4202.796026,1363.350602 4203.386019,1366.922940 4202.718102,1372.716886 4200.892462,1377.373373 4197.653065,1381.425585 4192.265202,1384.749111 4186.298477,1385.744392"/>
    <poly id="1027432714" type="landuse.grass" color="194,194,130" fill="1" layer="-3.00" shape="4200.224545,1356.383658 4201.883206,1356.543613 4200.892462,1336.815817 4198.732864,1335.393996 4200.224545,1356.383658"/>
    <poly id="1027432715" type="landuse.grass" color="194,194,130" fill="1" layer="-3.00" shape="4197.241183,1308.699348 4198.487961,1307.455259 4196.417419,1280.334158 4194.669703,1278.912347 4197.241183,1308.699348"/>
    <poly id="1027432716" type="landuse.grass" color="194,194,130" fill="1" layer="-3.00" shape="4193.678959,1270.292620 4192.521237,1256.447759 4194.012918,1257.762931 4195.170640,1269.297353 4193.678959,1270.292620"/>
    <poly id="1027432717" type="landuse.grass" color="194,194,130" fill="1" layer="-3.00" shape="4191.274458,1245.659802 4190.773521,1241.021163 4192.521237,1242.176379 4192.599160,1244.664538 4191.274458,1245.659802"/>
    <poly id="1027432718" type="landuse.grass" color="194,194,130" fill="1" layer="-3.00" shape="4209.352744,1233.467829 4208.606903,1224.599335 4210.187640,1224.101704 4210.510466,1232.561429 4209.352744,1233.467829"/>
    <poly id="1027432719" type="landuse.grass" color="194,194,130" fill="1" layer="-3.00" shape="4212.425162,1264.232158 4214.495704,1264.072204 4212.258182,1245.748665 4210.343487,1246.157434 4212.425162,1264.232158"/>
    <poly id="1027432720" type="landuse.grass" color="194,194,130" fill="1" layer="-3.00" shape="4214.573628,1290.944434 4215.987385,1288.296307 4216.978129,1300.310635 4219.226782,1316.910342 4222.043166,1346.590845 4222.711082,1354.233148 4221.052422,1354.553058 4220.885443,1352.491413 4219.137727,1330.595351 4217.646046,1317.070297 4214.573628,1290.944434"/>
    <poly id="1027432721" type="landuse.grass" color="194,194,130" fill="1" layer="-3.00" shape="4243.605751,1668.160226 4244.273668,1665.085413 4246.177231,1685.827091 4247.668912,1705.484634 4249.327573,1720.734370 4251.075289,1737.068325 4251.565094,1743.218006 4249.828510,1741.973851 4249.082670,1738.987878 4247.924947,1718.157198 4246.678169,1703.991654 4246.344210,1698.926190 4243.605751,1668.160226"/>
    <poly id="1027432722" type="landuse.grass" color="194,194,130" fill="1" layer="-3.00" shape="4260.860272,1859.902851 4262.596856,1859.991720 4260.693293,1837.436667 4257.954833,1811.060309 4253.624505,1763.248934 4252.399991,1766.519294 4253.691297,1784.115277 4257.453896,1827.056743 4258.533695,1838.591968 4260.860272,1859.902851"/>