<?xml version="1.0" encoding="UTF-8"?>

<!-- generated on 2024-04-14 22:26:05.559052 by randomTrips.py v1_19_0+0000-baa66a0f364
<configuration>
    <net-file value="wielun.net.xml"/>
    <output-trip-file value="wielun.bus.trips.xml"/>
    <route-file value="wielun.bus.rou.xml"/>
    <prefix value="bus"/>
    <trip-attributes value="departLane=&quot;best&quot;"/>
    <fringe-start-attributes value="departSpeed=&quot;max&quot;"/>
    <vehicle-class value="bus"/>
    <fringe-factor value="5"/>
    <vclass value="bus"/>
    <via-edge-types value="highway.motorway,highway.motorway_link,highway.trunk_link,highway.primary_link,highway.secondary_link,highway.tertiary_link"/>
    <min-distance value="600.0"/>
    <min-distance.fringe value="10.0"/>
    <remove-loops value="True"/>
    <validate value="True"/>
    <insertion-density value="4.0"/>
</configuration>
-->

<!-- generated on 2024-04-14 22:26:05 by Eclipse SUMO duarouter Version 1.19.0
<configuration xmlns:xsi="http://www.w3.org/2001/XMLSchema-instance" xsi:noNamespaceSchemaLocation="http://sumo.dlr.de/xsd/duarouterConfiguration.xsd">

    <input>
        <net-file value="wielun.net.xml"/>
        <route-files value="wielun.bus.trips.xml"/>
    </input>

    <output>
        <output-file value="wielun.bus.rou.xml"/>
        <alternatives-output value="NUL"/>
    </output>

    <processing>
        <remove-loops value="true"/>
    </processing>

    <time>
        <begin value="0.0"/>
        <end value="3600.0"/>
    </time>

    <report>
        <no-warnings value="true"/>
        <ignore-errors value="true"/>
        <no-step-log value="true"/>
    </report>

</configuration>
-->

<routes xmlns:xsi="http://www.w3.org/2001/XMLSchema-instance" xsi:noNamespaceSchemaLocation="http://sumo.dlr.de/xsd/routes_file.xsd">
    <vType id="bus_bus" vClass="bus"/>
    <vehicle id="bus0" type="bus_bus" depart="0.00" departLane="best" departSpeed="max">
        <route edges="42340628#0 42340628#1 319023527 -237264805#1 -319023535#2 -319023535#0 -549118422 -42340641#1 -319023542#1 -549008000 -549008043#2 -549008046#2 -549008048 -1152230290"/>
    </vehicle>
    <vehicle id="bus1" type="bus_bus" depart="27.58" departLane="best">
        <route edges="-549008079 -549008078 -237382756 -549008071 -549008074 -237382742#2 42336835#0 549118408 549008065 288875956 549118404 962307428 194296246 -39122228 777538786 1196694183 777538784 -974646436 777538788 1196694175 777538792 -549008039#1"/>
    </vehicle>
    <vehicle id="bus2" type="bus_bus" depart="55.17" departLane="best">
        <route edges="549008056 1046109806#0 549008060 549008059 549008062 549008063 288875953#0 549008070 411763899#0 549008066 438404111 549008043#0 42340648 319023542#0 42340641#0 549118422 319023535#0 319023535#1 549008039#0"/>
    </vehicle>
    <vehicle id="bus3" type="bus_bus" depart="82.75" departLane="best">
        <route edges="777538770 411763917 42340609 1196694169 1196694172 1196694173 42340610 1196694167 186938889 186938890 549118393#0 549118396 549118397 1062301256 1148646859 974006868#0 974006868#1 974006868#2 974006867 -42336836 -1132700068 1062682404 962307427 -288875956 -1073046199 288875955#0 288875954#0 -549008063 1078784919 1078784920 1078784922 1046107949 1078784924#0 -549008056 -1046109807 549008057 549008055 549008052 549008051 1263276573 1046109808 -249826562"/>
    </vehicle>
    <vehicle id="bus4" type="bus_bus" depart="110.34" departLane="best">
        <route edges="1134433961 -549008083#0 -549008084 -549008080 -549008081 -549008079 -549008078 -237382756 -549008071 -549008074 -237382742#2 549008070 411763899#0 549008066 438404111 -549008046#2 -549008048 -1152230290"/>
    </vehicle>
    <vehicle id="bus5" type="bus_bus" depart="137.92" departLane="best">
        <route edges="-549008039#1 -319023535#2 -319023535#0 -549118422 -42340641#1 -319023542#1 -549008000 -549008043#2 -437406387#2 -549008066 -549008067 -549008070 288875954#0"/>
    </vehicle>
    <vehicle id="bus6" type="bus_bus" depart="165.50" departLane="best" departSpeed="max">
        <route edges="-1202362037 -331657131 1236950840 974006868#0 974006868#1 974006868#2 974006867 -42336836 -1132700068 -39122228 777538786 1196694183 777538784 -974646436 777538788 1196694175 777538792 -549008039#1 -319023535#2 -319023535#0 -549118422 -42340641#1 42340642#0"/>
    </vehicle>
    <vehicle id="bus7" type="bus_bus" depart="193.09" departLane="best">
        <route edges="42340641#0 549118422 319023535#0 319023535#1 42340613#0 549008036 549008035 778096185 1196696796 1196696797 1196696798 1196696799 777538772 777538774 814268085 769716782 1196694173 42340610 1196694167 186938889 186938890 549118393#0 549118396 549118397 1062301256 1148646859 974006868#0 1134433961 1223056399 319023546#1"/>
    </vehicle>
    <vehicle id="bus8" type="bus_bus" depart="220.67" departLane="best">
        <route edges="-549008083#0 -549008084 -549008080 -549008081 -549008079 -549008078 -237382756 -549008071 -549008074 -237382742#2 288875954#0 -549008063 1078784919 1078784920 1078784922 1046107949 1078784924#0 -549008056 -1046109807 549008057 549008055"/>
    </vehicle>
    <vehicle id="bus9" type="bus_bus" depart="248.25" departLane="best">
        <route edges="778096186 777538772 777538774 814268085 769716782 1196694173 42340610 1196694167 186938889 186938890 549118393#0 549118396 549118397 1062301256 1148646859 974006868#0 974006868#1 974006868#2 974006867 -42336836 -1132700068 1062682404 962307427 -288875956 -1073046199 288875955#0 288875954#0 -549008063 1078784919 1078784920 1078784922 1046107949"/>
    </vehicle>
    <vehicle id="bus10" type="bus_bus" depart="275.84" departLane="best" departSpeed="max">
        <route edges="-319023546#1 -319023546#0 -319023554 -549008085 -549008083#0 -549008084 -549008080 -549008081 -549008079 -549008078 -237382756 -549008071 -549008074 -237382742#2 42336835#0 549118408 549008065 288875956 549118404 962307428 194296246 -39122228 777538786 1196694183 777538784 -974646436 777538788 1196694175 777538792 -549008039#1 237264805#1 -319023527"/>
    </vehicle>
    <vehicle id="bus11" type="bus_bus" depart="303.42" departLane="best">
        <route edges="549118422 319023535#0 319023535#1 42340613#0 549008036 549008035 778096185 1196696796 1196696797 1196696798 1196696799 777538772 777538774 814268085 769716782 1196694173 42340610 1196694167 186938889 186938890 549118393#0 549118396 549118397 1062301256 1148646859 974006868#0 974006868#1 974006868#2 1148646858 1148646857 777538770 411763917 42340609"/>
    </vehicle>
    <vehicle id="bus12" type="bus_bus" depart="331.01" departLane="best">
        <route edges="1078784913 1078784916 1046100143 1078784918 1078784915 1046109807 549008056 1046109806#0 549008060 549008059 549008062 549008063 288875953#0 237382742#0 549008074 549008071 319023556 549008078 549008079 549008081 549008080 549008084 549008083#0 549008085 319023554 319023546#0 319023546#1"/>
    </vehicle>
    <vehicle id="bus13" type="bus_bus" depart="358.59" departLane="best">
        <route edges="549118397 1062301256 1148646859 974006868#0 974006868#1 974006868#2 974006867 -42336836 -1132700068 -39122228 777538786 1196694183 777538784 -974646436 777538788 1196694175 777538792 -549008039#1 -319023535#2 -319023535#0 -549118422 -42340641#1"/>
    </vehicle>
    <vehicle id="bus14" type="bus_bus" depart="386.17" departLane="best">
        <route edges="549008046#0 -437406387#2 -549008066 -549008067 -549008070 237382742#0 549008074 549008071 319023556 549008078 549008079 549008081"/>
    </vehicle>
    <vehicle id="bus15" type="bus_bus" depart="413.76" departLane="best">
        <route edges="-319023535#2 -319023535#0 -549118422 -42340641#1 -319023542#1 -549008000 -549008043#2 -549008046#2"/>
    </vehicle>
    <vehicle id="bus16" type="bus_bus" depart="441.34" departLane="best" departSpeed="max">
        <route edges="-319023546#1 -319023546#0 -319023554 -549008085 -549008083#0 -549008084 -549008080 -549008081 -549008079 -549008078"/>
    </vehicle>
    <vehicle id="bus17" type="bus_bus" depart="468.92" departLane="best" departSpeed="max">
        <route edges="42340628#0 -792659379 778096183 1196696798 1196696799 777538772 777538774 814268085 769716782 1196694173 42340610 1196694167 186938889 186938890 549118393#0 549118396 549118397 1062301256 1148646859 974006868#0 974006868#1 974006868#2 974006867 -42336836 -1132700068 1062682404 962307427 -288875956 -1073046199 288875955#0 288875954#0 -549008063 1078784919 1078784920 1078784922 1046107949 1078784924#0 -549008056 -1046109807 549008057 549008055 549008052 549008051 1263276573 1046109808 -249826562 249826562 1078784913"/>
    </vehicle>
    <vehicle id="bus18" type="bus_bus" depart="496.51" departLane="best">
        <route edges="1046109808 -249826562 249826562 1078784913 1078784916 1046100143 1078784918 1078784915 1046109807 549008056 1046109806#0 549008060 549008059 549008062 549008063 288875953#0 549008070 411763899#0 549008066 438404111 549008043#0 42340648"/>
    </vehicle>
    <vehicle id="bus19" type="bus_bus" depart="524.09" departLane="best">
        <route edges="-549008078 -237382756 -549008071 -549008074 -237382742#2 42336835#0 549118408 549008065 288875956 549118404 962307428 194296246 1132700068 1149133719 974006864 1148646857 777538770 411763917 42340609 1196694169 194355534 769716780 720901625 248975819 1196696794 1196696795 1196696796 1196696797 1196696798 778096187"/>
    </vehicle>
    <vehicle id="bus20" type="bus_bus" depart="551.68" departLane="best" departSpeed="max">
        <route edges="-42340646 -42340642#1 -319023542#1 -549008000 -549008043#2 -437406387#2 -549008066 -549008067 -549008070 288875954#0 -549008063"/>
    </vehicle>
    <vehicle id="bus21" type="bus_bus" depart="579.26" departLane="best" departSpeed="max">
        <route edges="-42340646 -42340642#1 -319023542#1 -549008000 -549008043#2 -437406387#2 -549008066 -549008067 -549008070 288875954#0 -549008063 1078784919 1078784920 1078784922 1046107949 1078784924#0 -549008056 -1046109807 549008057 549008055 549008052 549008051 1263276573 1046109808 -249826562 249826562 1078784913 1078784916 1046100143 1078784918"/>
    </vehicle>
    <vehicle id="bus22" type="bus_bus" depart="606.84" departLane="best">
        <route edges="974006864 1148646857 777538770 411763917 42340609 1196694169 194355534 769716780 720901625 248975819 1196696794 778096184 -549008035 -549008036 -249487869 -319023535#2 -319023535#0 -549118422 -42340641#1 42340642#0 42340647"/>
    </vehicle>
    <vehicle id="bus23" type="bus_bus" depart="634.43" departLane="best">
        <route edges="-319023554 -549008085 -549008083#0 -549008084 -549008080 -549008081 -549008079 -549008078 -237382756 -549008071 -549008074 -237382742#2 549008070 411763899#0 549008066 438404111 -549008046#2"/>
    </vehicle>
    <vehicle id="bus24" type="bus_bus" depart="662.01" departLane="best">
        <route edges="-549008048 -1152230290"/>
    </vehicle>
    <vehicle id="bus25" type="bus_bus" depart="689.60" departLane="best" departSpeed="max">
        <route edges="-792723120 778096186 777538772 777538774 814268085 769716782 1196694173 42340610 1196694167 186938889 186938890 549118393#0 549118396 549118397 1062301256 1148646859 974006868#0 1134433961 -549008083#0 -549008084 -549008080 -549008081 -549008079 -549008078 -237382756 -549008071"/>
    </vehicle>
    <vehicle id="bus26" type="bus_bus" depart="717.18" departLane="best">
        <route edges="-42340642#1 -319023542#1 -549008000 -549008043#2 -437406387#2 -549008066 -549008067 -549008070 288875954#0 -549008063 1078784919 1078784920 1078784922 1046107949 1078784924#0"/>
    </vehicle>
    <vehicle id="bus27" type="bus_bus" depart="744.76" departLane="best">
        <route edges="777538787 39122228 1062682404 962307427 -288875956 -1073046199 288875955#0 288875954#0 -549008063 1078784919 1078784920 1078784922 1046107949 1078784924#0 -549008056 -1046109807 549008057 549008055 549008052 549008051 1263276573"/>
    </vehicle>
    <vehicle id="bus28" type="bus_bus" depart="772.35" departLane="best">
        <route edges="42336835#0 549118408 549008065 288875956 549118404 962307428 194296246 -39122228 777538786 1196694183 777538784 -974646436 777538788"/>
    </vehicle>
    <vehicle id="bus29" type="bus_bus" depart="799.93" departLane="best">
        <route edges="549008062 549008063 288875953#0 42336835#0 549118408 549008065 288875956 549118404 962307428 194296246 1132700068 1149133719 974006864 1148646857 777538770 411763917 42340609 1196694169 194355534 769716780 720901625 248975819 1196696794 778096184 -549008035 -549008036"/>
    </vehicle>
    <vehicle id="bus30" type="bus_bus" depart="827.51" departLane="best">
        <route edges="974006867 -42336836 -1132700068 1062682404 962307427 -288875956 -1073046199 288875955#0"/>
    </vehicle>
    <vehicle id="bus31" type="bus_bus" depart="855.10" departLane="best" departSpeed="max">
        <route edges="-319023546#1 -319023546#0 -319023554 -549008085 709217977 974006868#2 1148646858 1148646857 777538770 411763917 42340609 1196694169 194355534 769716780 720901625 248975819 1196696794 1196696795 1196696796 778096182 791651315 42340628#1 319023527 -237264805#1"/>
    </vehicle>
    <vehicle id="bus32" type="bus_bus" depart="882.68" departLane="best" departSpeed="max">
        <route edges="-319023546#1 -319023546#0 -319023554 -549008085 -549008083#0 -549008084 -549008080 -549008081 -549008079 -549008078 -237382756 -549008071 -549008074 -237382742#2 549008070 411763899#0 549008066 438404111 549008043#0 42340648 319023542#0 42340642#0 42340647"/>
    </vehicle>
    <vehicle id="bus33" type="bus_bus" depart="910.27" departLane="best">
        <route edges="549008079 549008081 549008080 549008084 549008083#0 709217977 974006868#2 1148646858 1148646857 1148646856 1062301256 974006865 331657131 1202362037"/>
    </vehicle>
    <vehicle id="bus34" type="bus_bus" depart="937.85" departLane="best">
        <route edges="-288875956 -1073046199 288875955#0 288875954#0 -549008063 1078784919"/>
    </vehicle>
    <vehicle id="bus35" type="bus_bus" depart="965.43" departLane="best">
        <route edges="974006867 -42336836 -1132700068 -39122228 777538786 1196694183 777538784 -974646436 777538788 1196694175 777538792 -549008039#1 -319023535#2"/>
    </vehicle>
    <vehicle id="bus36" type="bus_bus" depart="993.02" departLane="best">
        <route edges="-1132700068 1062682404 962307427 -288875956 -1073046199 288875955#0 288875954#0 -549008063 1078784919 1078784920 1078784922 1046107949 1078784924#0 -549008056 -1046109807 549008057 549008055 549008052 549008051 1263276573 1046109808 -249826562 249826562 1078784913 1078784916 1046100143 1078784918 1078784915 1046109807 549008056 1046109806#0 549008060"/>
    </vehicle>
    <vehicle id="bus37" type="bus_bus" depart="1020.60" departLane="best" departSpeed="max">
        <route edges="42373465 1152230292 549008046#0 -437406387#2 -549008066 -549008067 -549008070 237382742#0 549008074 549008071 319023556 549008078 549008079 549008081 549008080 549008084 549008083#0 549008085 319023554 319023546#0"/>
    </vehicle>
    <vehicle id="bus38" type="bus_bus" depart="1048.19" departLane="best">
        <route edges="-549008078 -237382756 -549008071 -549008074 -237382742#2 549008070 411763899#0 549008066 438404111 549008043#0 42340648 319023542#0 42340642#0 42340647"/>
    </vehicle>
    <vehicle id="bus39" type="bus_bus" depart="1075.77" departLane="best" departSpeed="max">
        <route edges="-319023546#1 -319023546#0 -319023554 -549008085 709217977 974006868#2 1148646858 1148646857 1148646856 1062301256 974006865 331657131 1202362037"/>
    </vehicle>
    <vehicle id="bus40" type="bus_bus" depart="1103.35" departLane="best" departSpeed="max">
        <route edges="-1132700068 1062682404 962307427 -288875956 -1073046199 288875955#0 549008070"/>
    </vehicle>
    <vehicle id="bus41" type="bus_bus" depart="1130.94" departLane="best" departSpeed="max">
        <route edges="249826562 1078784913 1078784916 1046100143 1078784918 1078784915 1046109807 549008056 1046109806#0 549008060 549008059 549008062 549008063 288875953#0 42336835#0 549118408 549008065 288875956 549118404 962307428 194296246 1132700068 1149133719 974006864 1148646857 777538770 411763917 42340609 1196694169 194355534 769716780 720901625 248975819 1196696794 1196696795 1196696796 778096182 791651315 -42340628#0"/>
    </vehicle>
    <vehicle id="bus42" type="bus_bus" depart="1158.52" departLane="best">
        <route edges="777538786 1196694183 777538784 -974646436 777538788 1196694175 777538792 -549008039#1 42340613#0 549008036 549008035 778096185 1196696796 1196696797 1196696798 1196696799 777538772 777538774"/>
    </vehicle>
    <vehicle id="bus43" type="bus_bus" depart="1186.10" departLane="best">
        <route edges="-549008085 -549008083#0 -549008084 -549008080 -549008081 -549008079 -549008078 -237382756 -549008071 -549008074 -237382742#2 549008070 411763899#0 549008066 438404111 549008043#0 42340648 319023542#0 42340642#0 42340647"/>
    </vehicle>
    <vehicle id="bus44" type="bus_bus" depart="1213.69" departLane="best">
        <route edges="549008065 288875956 549118404 962307428 194296246 1132700068 1149133719 974006864 1148646857 1148646856 1062301256 1148646859 974006868#0 1134433961 549008085 319023554 319023546#0"/>
    </vehicle>
    <vehicle id="bus45" type="bus_bus" depart="1241.27" departLane="best">
        <route edges="-549008071 -549008074 -237382742#2 549008070 411763899#0 549008066 438404111 549008043#0 42340648 319023542#0 42340641#0 549118422 319023535#0 319023535#1"/>
    </vehicle>
    <vehicle id="bus46" type="bus_bus" depart="1268.86" departLane="best">
        <route edges="1046109807 549008056 1046109806#0 549008060 549008059 549008062 549008063 288875953#0 42336835#0 549118408 549008065 288875956 549118404 962307428 194296246 1132700068 1149133719 974006864 1148646857 777538770 411763917 42340609 1196694169 1196694172 1196694173 1030991935 1030991934"/>
    </vehicle>
    <vehicle id="bus47" type="bus_bus" depart="1296.44" departLane="best" departSpeed="max">
        <route edges="-1202362037 -331657131 1236950840 974006868#0 974006868#1 974006868#2 974006867 -42336836 -1132700068 -39122228 777538786 1196694183 777538784 -974646436 777538788 1196694175 777538792 -549008039#1 42340613#0 549008036 549008035 778096185"/>
    </vehicle>
    <vehicle id="bus48" type="bus_bus" depart="1324.02" departLane="best">
        <route edges="720901625 248975819 1196696794 778096184 -549008035 -549008036 -249487869 -319023535#2 -319023535#0 -549118422 -42340641#1 42340642#0 549118415"/>
    </vehicle>
    <vehicle id="bus49" type="bus_bus" depart="1351.61" departLane="best">
        <route edges="-792659379 778096183 1196696798 1196696799 777538772 777538774 814268085 769716782 1196694173 42340610 1196694167 186938889 186938890 549118393#0 549118396 549118397 1062301256 1148646859 974006868#0 1134433961 -549008083#0 -549008084 -549008080 -549008081 -549008079 -549008078 -237382756"/>
    </vehicle>
    <vehicle id="bus50" type="bus_bus" depart="1379.19" departLane="best">
        <route edges="-319023527 -42340628#1 -792659379 778096183 1196696798 1196696799 777538772 777538774 814268085 769716782 1196694173 42340610 1196694167 186938889 186938890 549118393#0 549118396 549118397 1062301256 1148646859 974006868#0 974006868#1 974006868#2 974006867 -42336836 -1132700068 1062682404 962307427 -288875956 -1073046199 288875955#0 237382742#0 549008074 549008071 319023556 549008078"/>
    </vehicle>
    <vehicle id="bus51" type="bus_bus" depart="1406.77" departLane="best">
        <route edges="549008065 288875956 549118404 962307428 194296246 -39122228"/>
    </vehicle>
    <vehicle id="bus52" type="bus_bus" depart="1434.36" departLane="best">
        <route edges="237264805#1 -319023527 -42340628#1 -792659379 778096183 1196696798 1196696799 777538772 777538774 814268085 769716782 1196694173 42340610 1196694167 186938889 186938890 549118393#0 549118396 549118397 1062301256 1148646859 974006868#0 1134433961 1223056399 319023546#1"/>
    </vehicle>
    <vehicle id="bus53" type="bus_bus" depart="1461.94" departLane="best">
        <route edges="-549008074 -237382742#2 42336835#0 549118408 549008065 288875956 549118404 962307428 194296246 1132700068 1149133719 974006864 1148646857 777538770 411763917 42340609 1196694169 194355534 769716780 720901625 248975819 1196696794 1196696795 1196696796 1196696797 1196696798 1196696799 777538772 777538774"/>
    </vehicle>
    <vehicle id="bus54" type="bus_bus" depart="1489.53" departLane="best">
        <route edges="1134433961 709217977 974006868#2 1148646858 1148646857 777538770 411763917 42340609 1196694169 194355534 769716780 720901625 248975819 1196696794 778096184 -549008035"/>
    </vehicle>
    <vehicle id="bus55" type="bus_bus" depart="1517.11" departLane="best">
        <route edges="319023535#1 549008039#0 777538793 1196694181 777538789 1237762219 777538785 1196694186 777538787 39122228 1062682404 962307427 -288875956 -1073046199 288875955#0 288875954#0 -549008063"/>
    </vehicle>
    <vehicle id="bus56" type="bus_bus" depart="1544.69" departLane="best">
        <route edges="974006865 331657131 1202362037 -1202362037 -331657131 1236950840 974006868#0 974006868#1 974006868#2 974006867 -42336836 -1132700068 1062682404 962307427 -288875956 -1073046199 288875955#0 549008070 411763899#0 549008066 438404111 549008043#0 42340648"/>
    </vehicle>
    <vehicle id="bus57" type="bus_bus" depart="1572.28" departLane="best">
        <route edges="1236950840 974006868#0 974006868#1 974006868#2 1148646858 1148646857 777538770 411763917 42340609 1196694169 194355534 769716780 720901625 248975819 1196696794 1196696795 1196696796 778096182 791651315 42340628#1 319023527"/>
    </vehicle>
    <vehicle id="bus58" type="bus_bus" depart="1599.86" departLane="best">
        <route edges="-331657131 1236950840 974006868#0 974006868#1 974006868#2 974006867 -42336836 -1132700068 -39122228 777538786 1196694183 777538784 -974646436 777538788 1196694175 777538792 -549008039#1 -319023535#2 -319023535#0 -549118422 -42340641#1 -319023542#1 -549008000 -549008043#2"/>
    </vehicle>
    <vehicle id="bus59" type="bus_bus" depart="1627.45" departLane="best">
        <route edges="1237762219 777538785 1196694186 777538787 39122228 1062682404 962307427 -288875956 -1073046199 288875955#0 549008070 411763899#0"/>
    </vehicle>
    <vehicle id="bus60" type="bus_bus" depart="1655.03" departLane="best">
        <route edges="1152230292 549008046#0 549008043#0 42340648 319023542#0 42340641#0 549118422 319023535#0 319023535#1 549008039#0"/>
    </vehicle>
    <vehicle id="bus61" type="bus_bus" depart="1682.61" departLane="best">
        <route edges="1152230292 549008046#0 549008043#0 42340648 319023542#0 42340641#0 549118422 319023535#0 319023535#1 549008039#0 777538793"/>
    </vehicle>
    <vehicle id="bus62" type="bus_bus" depart="1710.20" departLane="best" departSpeed="max">
        <route edges="-1132700068 1062682404 962307427 -288875956 -1073046199 288875955#0 288875954#0 -549008063 1078784919 1078784920 1078784922 1046107949 1078784924#0 -549008056 -1046109807 549008057 549008055 549008052 549008051 1263276573 1046109808 -249826562"/>
    </vehicle>
    <vehicle id="bus63" type="bus_bus" depart="1737.78" departLane="best">
        <route edges="549008056 1046109806#0 549008060 549008059 549008062 549008063 288875953#0 42336835#0 549118408 549008065 288875956 549118404 962307428 194296246 -39122228 777538786 1196694183 777538784 -974646436 777538788 1196694175 777538792 -549008039#1 42340613#0 549008036"/>
    </vehicle>
    <vehicle id="bus64" type="bus_bus" depart="1765.36" departLane="best">
        <route edges="-549008036 -249487869 237264805#1 -319023527 -42340628#1 -792659379 778096183 1196696798 1196696799 777538772 777538774 814268085 769716782 1196694173 42340610 1196694167 186938889 186938890 549118393#0 549118396 549118397 1062301256 1148646859 974006868#0 974006868#1 974006868#2 974006867 -42336836"/>
    </vehicle>
    <vehicle id="bus65" type="bus_bus" depart="1792.95" departLane="best">
        <route edges="777538793 1196694181 777538789 1237762219 777538785 1196694186 777538787 39122228 1062682404 962307427 -288875956 -1073046199 288875955#0 237382742#0 549008074 549008071 319023556"/>
    </vehicle>
    <vehicle id="bus66" type="bus_bus" depart="1820.53" departLane="best">
        <route edges="237264805#1 -319023527 -42340628#1 -792659379 778096183 1196696798 1196696799 777538772 777538774 814268085 769716782 1196694173 42340610 1196694167 186938889 186938890 549118393#0 549118396 549118397 1062301256 1148646859 974006868#0 974006868#1 974006868#2 974006867 -42336836 -1132700068 1062682404 962307427 -288875956 -1073046199 288875955#0 237382742#0 549008074 549008071 319023556 549008078 549008079 549008081 549008080 549008084"/>
    </vehicle>
    <vehicle id="bus67" type="bus_bus" depart="1848.12" departLane="best">
        <route edges="-549008083#0 -549008084 -549008080 -549008081 -549008079 -549008078 -237382756 -549008071 -549008074 -237382742#2 42336835#0 549118408 549008065 288875956 549118404 962307428 194296246 -39122228 777538786 1196694183 777538784 -974646436 777538788 1196694175 777538792 -549008039#1 -319023535#2 -319023535#0 -549118422 -42340641#1"/>
    </vehicle>
    <vehicle id="bus68" type="bus_bus" depart="1875.70" departLane="best" departSpeed="max">
        <route edges="-319023546#1 -319023546#0 -319023554 -549008085 709217977 974006868#2 1148646858 1148646857 1148646856 1062301256 974006865 331657131 1202362037"/>
    </vehicle>
    <vehicle id="bus69" type="bus_bus" depart="1903.28" departLane="best">
        <route edges="549008055 549008052 549008051 1263276573 1046109808 -249826562 249826562 1078784913 1078784916 1046100143 1078784918 1078784915 1046109807 549008056 1046109806#0 549008060 549008059 549008062 549008063 288875953#0 549008070 411763899#0 549008066 438404111 549008043#0 42340648 319023542#0 42340641#0 549118422 319023535#0 319023535#1 549008039#0"/>
    </vehicle>
    <vehicle id="bus70" type="bus_bus" depart="1930.87" departLane="best">
        <route edges="962307428 194296246 -39122228 777538786 1196694183 777538784 -974646436 777538788 1196694175 777538792 -549008039#1 -319023535#2 -319023535#0"/>
    </vehicle>
    <vehicle id="bus71" type="bus_bus" depart="1958.45" departLane="best" departSpeed="max">
        <route edges="-1132700068 1062682404 962307427 -288875956 -1073046199 288875955#0 288875954#0 -549008063"/>
    </vehicle>
    <vehicle id="bus72" type="bus_bus" depart="1986.04" departLane="best" departSpeed="max">
        <route edges="-42340647 -42340642#1 42340641#0 549118422 319023535#0 319023535#1 42340613#0 549008036 549008035 778096185 1196696796 1196696797 1196696798 1196696799 777538772 777538774 814268085 769716782 1196694173 42340610 1196694167 186938889 186938890 549118393#0 549118396 549118397 1062301256 1148646859 974006868#0 1134433961 1223056399"/>
    </vehicle>
    <vehicle id="bus73" type="bus_bus" depart="2013.62" departLane="best">
        <route edges="1134433961 -549008083#0 -549008084 -549008080 -549008081 -549008079"/>
    </vehicle>
    <vehicle id="bus74" type="bus_bus" depart="2041.20" departLane="best">
        <route edges="-549008067 -549008070 42336835#0 549118408 549008065 288875956 549118404 962307428 194296246 1132700068 1149133719 974006864 1148646857 777538770 411763917 42340609 1196694169 194355534 769716780 720901625 248975819 1196696794 778096184"/>
    </vehicle>
    <vehicle id="bus75" type="bus_bus" depart="2068.79" departLane="best">
        <route edges="-319023546#0 -319023554 -549008085 -549008083#0 -549008084 -549008080 -549008081 -549008079 -549008078 -237382756 -549008071 -549008074 -237382742#2"/>
    </vehicle>
    <vehicle id="bus76" type="bus_bus" depart="2096.37" departLane="best">
        <route edges="974006867 -42336836 -1132700068 -39122228 777538786 1196694183 777538784 -974646436 777538788 1196694175 777538792 -549008039#1 -319023535#2 -319023535#0 -549118422 -42340641#1 42340642#0 549118415"/>
    </vehicle>
    <vehicle id="bus77" type="bus_bus" depart="2123.95" departLane="best">
        <route edges="709217977 974006868#2 1148646858 1148646857 777538770 411763917 42340609 1196694169 194355534 769716780 720901625 248975819 1196696794 1196696795 1196696796 778096182 791651315 -42340628#0"/>
    </vehicle>
    <vehicle id="bus78" type="bus_bus" depart="2151.54" departLane="best">
        <route edges="1078784920 549008062 549008063 288875953#0 42336835#0 549118408 549008065 288875956 549118404 962307428 194296246 1132700068 1149133719 974006864 1148646857 777538770 411763917 42340609 1196694169 194355534 769716780 720901625 248975819 1196696794 778096184 -549008035 -549008036 -249487869"/>
    </vehicle>
    <vehicle id="bus79" type="bus_bus" depart="2179.12" departLane="best">
        <route edges="1078784913 1078784916 1046100143 1078784918 1078784915 1046109807 549008056 1046109806#0 549008060 549008059 549008062 549008063 288875953#0 42336835#0 549118408 549008065 288875956 549118404 962307428"/>
    </vehicle>
    <vehicle id="bus80" type="bus_bus" depart="2206.71" departLane="best">
        <route edges="186938889 186938890 549118393#0 549118396 549118397 1062301256 974006865 331657131 1202362037"/>
    </vehicle>
    <vehicle id="bus81" type="bus_bus" depart="2234.29" departLane="best">
        <route edges="778096186 777538772 777538774 814268085 769716782 1196694173 42340610 1196694167 186938889 186938890 549118393#0 549118396 549118397 1062301256 1148646859 974006868#0 974006868#1 974006868#2 974006867"/>
    </vehicle>
    <vehicle id="bus82" type="bus_bus" depart="2261.87" departLane="best" departSpeed="max">