<?xml version="1.0" encoding="UTF-8"?>

<!-- generated on 2024-04-14 22:26:06.605928 by randomTrips.py v1_19_0+0000-baa66a0f364
<configuration>
    <net-file value="wielun.net.xml"/>
    <output-trip-file value="wielun.motorcycle.trips.xml"/>
    <route-file value="wielun.motorcycle.rou.xml"/>
    <prefix value="motorcycle"/>
    <trip-attributes value="departLane=&quot;best&quot;"/>
    <fringe-start-attributes value="departSpeed=&quot;max&quot;"/>
    <vehicle-class value="motorcycle"/>
    <fringe-factor value="2"/>
    <vclass value="motorcycle"/>
    <via-edge-types value="highway.motorway,highway.motorway_link,highway.trunk_link,highway.primary_link,highway.secondary_link,highway.tertiary_link"/>
    <max-distance value="1200.0"/>
    <remove-loops value="True"/>
    <validate value="True"/>
    <insertion-density value="4.0"/>
</configuration>
-->

<!-- generated on 2024-04-14 22:26:06 by Eclipse SUMO duarouter Version 1.19.0
<configuration xmlns:xsi="http://www.w3.org/2001/XMLSchema-instance" xsi:noNamespaceSchemaLocation="http://sumo.dlr.de/xsd/duarouterConfiguration.xsd">

    <input>
        <net-file value="wielun.net.xml"/>
        <route-files value="wielun.motorcycle.trips.xml"/>
    </input>

    <output>
        <output-file value="wielun.motorcycle.trips.xml.tmp"/>
        <alternatives-output value="NUL"/>
        <write-trips value="true"/>
    </output>

    <processing>
        <remove-loops value="true"/>
    </processing>

    <time>
        <begin value="0.0"/>
        <end value="3600.0"/>
    </time>

    <report>
        <no-warnings value="true"/>
        <ignore-errors value="true"/>
        <no-step-log value="true"/>
    </report>

</configuration>
-->

<routes xmlns:xsi="http://www.w3.org/2001/XMLSchema-instance" xsi:noNamespaceSchemaLocation="http://sumo.dlr.de/xsd/routes_file.xsd">
    <vType id="motorcycle_motorcycle" vClass="motorcycle"/>
    <trip id="motorcycle0" type="motorcycle_motorcycle" depart="0.00" departLane="best" departSpeed="max" from="42373465" to="-1152230290"/>
    <trip id="motorcycle1" type="motorcycle_motorcycle" depart="27.58" departLane="best" from="-549008084" to="549008066"/>
    <trip id="motorcycle2" type="motorcycle_motorcycle" depart="55.17" departLane="best" from="-549008063" to="549008051"/>
    <trip id="motorcycle3" type="motorcycle_motorcycle" depart="82.75" departLane="best" from="777538784" to="-319023535#2"/>
    <trip id="motorcycle4" type="motorcycle_motorcycle" depart="110.34" departLane="best" from="439667057" to="-1189727142"/>
    <trip id="motorcycle5" type="motorcycle_motorcycle" depart="137.92" departLane="best" from="-549008066" to="42336835#0"/>
    <trip id="motorcycle6" type="motorcycle_motorcycle" depart="165.50" departLane="best" from="-549008066" to="42336835#0"/>
    <trip id="motorcycle7" type="motorcycle_motorcycle" depart="193.09" departLane="best" from="549118393#0" to="-1073046199"/>
    <trip id="motorcycle8" type="motorcycle_motorcycle" depart="220.67" departLane="best" departSpeed="max" from="-319023546#1" to="-319023546#0"/>
    <trip id="motorcycle9" type="motorcycle_motorcycle" depart="248.25" departLane="best" departSpeed="max" from="711814487" to="42340628#1"/>
    <trip id="motorcycle10" type="motorcycle_motorcycle" depart="275.84" departLane="best" from="549118393#0" to="549008065"/>
    <trip id="motorcycle11" type="motorcycle_motorcycle" depart="303.42" departLane="best" from="319023542#0" to="962307427"/>
    <trip id="motorcycle12" type="motorcycle_motorcycle" depart="331.01" departLane="best" from="549008062" to="319023554"/>
    <trip id="motorcycle13" type="motorcycle_motorcycle" depart="358.59" departLane="best" from="549008055" to="319023556"/>
    <trip id="motorcycle14" type="motorcycle_motorcycle" depart="386.17" departLane="best" from="-549008070" to="-549118422"/>
    <trip id="motorcycle15" type="motorcycle_motorcycle" depart="413.76" departLane="best" from="-319023542#1" to="-549008070"/>
    <trip id="motorcycle16" type="motorcycle_motorcycle" depart="441.34" departLane="best" from="-319023554" to="-549008084"/>
    <trip id="motorcycle17" type="motorcycle_motorcycle" depart="468.92" departLane="best" from="1078784916" to="549008056"/>
    <trip id="motorcycle18" type="motorcycle_motorcycle" depart="496.51" departLane="best" from="-549008000" to="549008065"/>
    <trip id="motorcycle19" type="motorcycle_motorcycle" depart="524.09" departLane="best" from="-437406387#2" to="1078784920"/>
    <trip id="motorcycle20" type="motorcycle_motorcycle" depart="551.68" departLane="best" from="974006865" to="438404111"/>
    <trip id="motorcycle21" type="motorcycle_motorcycle" depart="579.26" departLane="best" from="709217977" to="549008083#0"/>
    <trip id="motorcycle22" type="motorcycle_motorcycle" depart="606.84" departLane="best" from="-549008070" to="439667057"/>
    <trip id="motorcycle23" type="motorcycle_motorcycle" depart="634.43" departLane="best" from="-437406387#2" to="1132700068"/>
    <trip id="motorcycle24" type="motorcycle_motorcycle" depart="662.01" departLane="best" from="777538789" to="186938890"/>
    <trip id="motorcycle25" type="motorcycle_motorcycle" depart="689.60" departLane="best" from="-549008081" to="-549008074"/>
    <trip id="motorcycle26" type="motorcycle_motorcycle" depart="717.18" departLane="best" from="39122228" to="549008080"/>
    <trip id="motorcycle27" type="motorcycle_motorcycle" depart="744.76" departLane="best" from="42340609" to="777538788"/>
    <trip id="motorcycle28" type="motorcycle_motorcycle" depart="772.35" departLane="best" from="1078784924#0" to="549008066"/>
    <trip id="motorcycle29" type="motorcycle_motorcycle" depart="799.93" departLane="best" from="974006867" to="-288875956"/>
    <trip id="motorcycle30" type="motorcycle_motorcycle" depart="827.51" departLane="best" departSpeed="max" from="-319023546#1" to="-237382756"/>
    <trip id="motorcycle31" type="motorcycle_motorcycle" depart="855.10" departLane="best" from="974006867" to="319023542#0"/>
    <trip id="motorcycle32" type="motorcycle_motorcycle" depart="882.68" departLane="best" from="814268085" to="777538770"/>
    <trip id="motorcycle33" type="motorcycle_motorcycle" depart="910.27" departLane="best" from="-1132700068" to="-549008063"/>
    <trip id="motorcycle34" type="motorcycle_motorcycle" depart="937.85" departLane="best" from="-549008043#2" to="319023546#0"/>
    <trip id="motorcycle35" type="motorcycle_motorcycle" depart="965.43" departLane="best" from="-549008083#0" to="439667057"/>
    <trip id="motorcycle36" type="motorcycle_motorcycle" depart="993.02" departLane="best" from="-39122228" to="1236950840"/>
    <trip id="motorcycle37" type="motorcycle_motorcycle" depart="1020.60" departLane="best" from="186938890" to="791651315"/>
    <trip id="motorcycle38" type="motorcycle_motorcycle" depart="1048.19" departLane="best" from="777538789" to="777538774"/>
    <trip id="motorcycle39" type="motorcycle_motorcycle" depart="1075.77" departLane="best" departSpeed="max" from="42340628#0" to="-42340641#1"/>
    <trip id="motorcycle40" type="motorcycle_motorcycle" depart="1103.35" departLane="best" from="549008074" to="319023546#1"/>
    <trip id="motorcycle41" type="motorcycle_motorcycle" depart="1130.94" departLane="best" from="1046109807" to="1046107949"/>
    <trip id="motorcycle42" type="motorcycle_motorcycle" depart="1158.52" departLane="best" from="777538774" to="-549118422"/>
    <trip id="motorcycle43" type="motorcycle_motorcycle" depart="1186.10" departLane="best" from="777538774" to="778096187"/>
    <trip id="motorcycle44" type="motorcycle_motorcycle" depart="1213.69" departLane="best" from="-549008085" to="-549008056"/>
    <trip id="motorcycle45" type="motorcycle_motorcycle" depart="1241.27" departLane="best" from="-319023546#0" to="549008065"/>
    <trip id="motorcycle46" type="motorcycle_motorcycle" depart="1268.86" departLane="best" from="974006867" to="549008035"/>
    <trip id="motorcycle47" type="motorcycle_motorcycle" depart="1296.44" departLane="best" from="-974646436" to="-319023535#0"/>
    <trip id="motorcycle48" type="motorcycle_motorcycle" depart="1324.02" departLane="best" from="-42336836" to="549008066"/>
    <trip id="motorcycle49" type="motorcycle_motorcycle" depart="1351.61" departLane="best" from="1046109806#0" to="42336835#0"/>
    <trip id="motorcycle50" type="motorcycle_motorcycle" depart="1379.19" departLane="best" from="549008070" to="549008066"/>
    <trip id="motorcycle51" type="motorcycle_motorcycle" depart="1406.77" departLane="best" from="-319023535#0" to="-549008000"/>
    <trip id="motorcycle52" type="motorcycle_motorcycle" depart="1434.36" departLane="best" from="-549008070" to="777538792"/>
    <trip id="motorcycle53" type="motorcycle_motorcycle" depart="1461.94" departLane="best" from="-549008071" to="-549008046#2"/>
    <trip id="motorcycle54" type="motorcycle_motorcycle" depart="1489.53" departLane="best" from="778096183" to="39122228"/>
    <trip id="motorcycle55" type="motorcycle_motorcycle" depart="1517.11" departLane="best" from="237382742#0" to="549008084"/>
    <trip id="motorcycle56" type="motorcycle_motorcycle" depart="1544.69" departLane="best" from="549118393#0" to="-549008039#1"/>
    <trip id="motorcycle57" type="motorcycle_motorcycle" depart="1572.28" departLane="best" departSpeed="max" from="-319023546#1" to="-319023546#0"/>
    <trip id="motorcycle58" type="motorcycle_motorcycle" depart="1599.86" departLane="best" from="549008062" to="-549008046#2"/>
    <trip id="motorcycle59" type="motorcycle_motorcycle" depart="1627.45" departLane="best" from="1152230292" to="549008084"/>
    <trip id="motorcycle60" type="motorcycle_motorcycle" depart="1655.03" departLane="best" from="974006867" to="-549118422"/>
    <trip id="motorcycle61" type="motorcycle_motorcycle" depart="1682.61" departLane="best" from="814268085" to="778096183"/>
    <trip id="motorcycle62" type="motorcycle_motorcycle" depart="1710.20" departLane="best" departSpeed="max" from="-1132700068" to="438404111"/>
    <trip id="motorcycle63" type="motorcycle_motorcycle" depart="1737.78" departLane="best" from="549008081" to="549008084"/>
    <trip id="motorcycle64" type="motorcycle_motorcycle" depart="1765.36" departLane="best" from="186938890" to="1202362037"/>
    <trip id="motorcycle65" type="motorcycle_motorcycle" depart="1792.95" departLane="best" from="778096187" to="974006867"/>
    <trip id="motorcycle66" type="motorcycle_motorcycle" depart="1820.53" departLane="best" departSpeed="max" from="-42340647" to="-792659379"/>
    <trip id="motorcycle67" type="motorcycle_motorcycle" depart="1848.12" departLane="best" from="814268085" to="411763917"/>
    <trip id="motorcycle68" type="motorcycle_motorcycle" depart="1875.70" departLane="best" from="-319023546#0" to="-549008074"/>
    <trip id="motorcycle69" type="motorcycle_motorcycle" depart="1903.28" departLane="best" from="-288875956" to="411763917"/>
    <trip id="motorcycle70" type="motorcycle_motorcycle" depart="1930.87" departLane="best" departSpeed="max" from="-42340647" to="792723120"/>
    <trip id="motorcycle71" type="motorcycle_motorcycle" depart="1958.45" departLane="best" from="-319023542#1" to="-549008039#1"/>
    <trip id="motorcycle72" type="motorcycle_motorcycle" depart="1986.04" departLane="best" from="-549008071" to="1149133719"/>
    <trip id="motorcycle73" type="motorcycle_motorcycle" depart="2013.62" departLane="best" from="777538785" to="549008074"/>
    <trip id="motorcycle74" type="motorcycle_motorcycle" depart="2041.20" departLane="best" from="319023535#0" to="778096185"/>
    <trip id="motorcycle75" type="motorcycle_motorcycle" depart="2068.79" departLane="best" from="-549008048" to="549008062"/>
    <trip id="motorcycle76" type="motorcycle_motorcycle" depart="2096.37" departLane="best" from="-549008071" to="1132700068"/>
    <trip id="motorcycle77" type="motorcycle_motorcycle" depart="2123.95" departLane="best" from="-549008036" to="1237762219"/>
    <trip id="motorcycle78" type="motorcycle_motorcycle" depart="2151.54" departLane="best" from="319023535#1" to="186938890"/>
    <trip id="motorcycle79" type="motorcycle_motorcycle" depart="2179.12" departLane="best" from="974006867" to="974006867"/>
    <trip id="motorcycle80" type="motorcycle_motorcycle" depart="2206.71" departLane="best" from="777538774" to="777538785"/>
    <trip id="motorcycle81" type="motorcycle_motorcycle" depart="2234.29" departLane="best" from="549118422" to="1078784922"/>
    <trip id="motorcycle82" type="motorcycle_motorcycle" depart="2261.87" departLane="best" from="-437406387#2" to="549008065"/>
    <trip id="motorcycle83" type="motorcycle_motorcycle" depart="2289.46" departLane="best" from="549118397" to="-974646436"/>
    <trip id="motorcycle84" type="motorcycle_motorcycle" depart="2317.04" departLane="best" from="549008035" to="778096186"/>
    <trip id="motorcycle85" type="motorcycle_motorcycle" depart="2344.62" departLane="best" from="-42340642#1" to="-39122228"/>
    <trip id="motorcycle86" type="motorcycle_motorcycle" depart="2372.21" departLane="best" from="549008059" to="-549008048"/>
    <trip id="motorcycle87" type="motorcycle_motorcycle" depart="2399.79" departLane="best" from="-549008000" to="549008080"/>
    <trip id="motorcycle88" type="motorcycle_motorcycle" depart="2427.38" departLane="best" departSpeed="max" from="-1132700068" to="-319023542#1"/>
    <trip id="motorcycle89" type="motorcycle_motorcycle" depart="2454.96" departLane="best" from="-549008085" to="-549008084"/>
    <trip id="motorcycle90" type="motorcycle_motorcycle" depart="2482.54" departLane="best" from="1046109807" to="549008081"/>
    <trip id="motorcycle91" type="motorcycle_motorcycle" depart="2510.13" departLane="best" from="-549008000" to="549008080"/>
    <trip id="motorcycle92" type="motorcycle_motorcycle" depart="2537.71" departLane="best" from="549008065" to="319023554"/>
    <trip id="motorcycle93" type="motorcycle_motorcycle" depart="2565.30" departLane="best" from="-549008085" to="-1073046199"/>
    <trip id="motorcycle94" type="motorcycle_motorcycle" depart="2592.88" departLane="best" from="-319023535#2" to="777538786"/>
    <trip id="motorcycle95" type="motorcycle_motorcycle" depart="2620.46" departLane="best" from="549118422" to="411763917"/>
    <trip id="motorcycle96" type="motorcycle_motorcycle" depart="2648.05" departLane="best" from="-974646436" to="777538788"/>
    <trip id="motorcycle97" type="motorcycle_motorcycle" depart="2675.63" departLane="best" from="549008078" to="319023554"/>
    <trip id="motorcycle98" type="motorcycle_motorcycle" depart="2703.21" departLane="best" departSpeed="max" from="-42340647" to="778096185"/>
    <trip id="motorcycle99" type="motorcycle_motorcycle" depart="2730.80" departLane="best" from="769716780" to="962307427"/>
    <trip id="motorcycle100" type="motorcycle_motorcycle" depart="2758.38" departLane="best" from="549118393#0" to="777538785"/>
    <trip id="motorcycle101" type="motorcycle_motorcycle" depart="2785.97" departLane="best" from="769716782" to="769716782"/>
    <trip id="motorcycle102" type="motorcycle_motorcycle" depart="2813.55" departLane="best" from="-549008067" to="549118408"/>
    <trip id="motorcycle103" type="motorcycle_motorcycle" depart="2841.13" departLane="best" from="194296246" to="1030991934"/>
    <trip id="motorcycle104" type="motorcycle_motorcycle" depart="2868.72" departLane="best" from="-549008084" to="411763899#0"/>
    <trip id="motorcycle105" type="motorcycle_motorcycle" depart="2896.30" departLane="best" from="962307428" to="319023546#0"/>
    <trip id="motorcycle106" type="motorcycle_motorcycle" depart="2923.89" departLane="best" from="778096184" to="-39122228"/>
    <trip id="motorcycle107" type="motorcycle_motorcycle" depart="2951.47" departLane="best" from="814268085" to="-549008035"/>
    <trip id="motorcycle108" type="motorcycle_motorcycle" depart="2979.05" departLane="best" from="-331657131" to="1236950840"/>
    <trip id="motorcycle109" type="motorcycle_motorcycle" depart="3006.64" departLane="best" departSpeed="max" from="42340628#0" to="319023527"/>
    <trip id="motorcycle110" type="motorcycle_motorcycle" depart="3034.22" departLane="best" from="1078784920" to="411763899#0"/>
    <trip id="motorcycle111" type="motorcycle_motorcycle" depart="3061.80" departLane="best" from="-549008079" to="549008060"/>
    <trip id="motorcycle112" type="motorcycle_motorcycle" depart="3089.39" departLane="best" from="-319023542#1" to="-549008063"/>
    <trip id="motorcycle113" type="motorcycle_motorcycle" depart="3116.97" departLane="best" from="-1073046199" to="-549008046#2"/>
    <trip id="motorcycle114" type="motorcycle_motorcycle" depart="3144.56" departLane="best" from="1078784915" to="288875956"/>
    <trip id="motorcycle115" type="motorcycle_motorcycle" depart="3172.14" departLane="best" from="1030991934" to="720901625"/>
    <trip id="motorcycle116" type="motorcycle_motorcycle" depart="3199.72" departLane="best" from="-974646436" to="1149133719"/>
    <trip id="motorcycle117" type="motorcycle_motorcycle" depart="3227.31" departLane="best" from="1132700068" to="791651315"/>
    <trip id="motorcycle118" type="motorcycle_motorcycle" depart="3254.89" departLane="best" from="-42340628#1" to="1202362037"/>
    <trip id="motorcycle119" type="motorcycle_motorcycle" depart="3282.47" departLane="best" from="777538787" to="42340642#0"/>
    <trip id="motorcycle120" type="motorcycle_motorcycle" depart="3310.06" departLane="best" from="1236950840" to="411763917"/>
    <trip id="motorcycle121" type="motorcycle_motorcycle" depart="3337.64" departLane="best" from="-437406387#2" to="194296246"/>
    <trip id="motorcycle122" type="motorcycle_motorcycle" depart="3365.23" departLane="best" from="1263276573" to="549008063"/>
    <trip id="motorcycle123" type="motorcycle_motorcycle" depart="3392.81" departLane="best" from="-237382742#2" to="777538788"/>
    <trip id="motorcycle124" type="motorcycle_motorcycle" depart="3420.39" departLane="best" from="-549008084" to="42340648"/>
    <trip id="motorcycle125" type="motorcycle_motorcycle" depart="3447.98" departLane="best" from="-549008039#1" to="-549008066"/>
    <trip id="motorcycle126" type="motorcycle_motorcycle" depart="3475.56" departLane="best" departSpeed="max" from="-1132700068" to="-288875956"/>
    <trip id="motorcycle127" type="motorcycle_motorcycle" depart="3503.15" departLane="best" from="-42336836" to="42340648"/>
    <trip id="motorcycle128" type="motorcycle_motorcycle" depart="3530.73" departLane="best" from="-549008043#2" to="-549008056"/>
    <trip id="motorcycle129" type="motorcycle_motorcycle" depart="3558.31" departLane="best" from="-1189727142" to="-1046109807"/>
    <trip id="motorcycle130" type="motorcycle_motorcycle" depart="3585.90" departLane="best" from="-549008070" to="549008081"/>
</routes>
