<?xml version="1.0" encoding="UTF-8"?>

<!-- generated on 2024-04-14 22:26:06.433697 by randomTrips.py v1_19_0+0000-baa66a0f364
<configuration>
    <net-file value="wielun.net.xml"/>
    <output-trip-file value="wielun.motorcycle.trips.xml"/>
    <route-file value="wielun.motorcycle.rou.xml"/>
    <prefix value="motorcycle"/>
    <trip-attributes value="departLane=&quot;best&quot;"/>
    <fringe-start-attributes value="departSpeed=&quot;max&quot;"/>
    <vehicle-class value="motorcycle"/>
    <fringe-factor value="2"/>
    <vclass value="motorcycle"/>
    <via-edge-types value="highway.motorway,highway.motorway_link,highway.trunk_link,highway.primary_link,highway.secondary_link,highway.tertiary_link"/>
    <max-distance value="1200.0"/>
    <remove-loops value="True"/>
    <validate value="True"/>
    <insertion-density value="4.0"/>
</configuration>
-->

<!-- generated on 2024-04-14 22:26:06 by Eclipse SUMO duarouter Version 1.19.0
<configuration xmlns:xsi="http://www.w3.org/2001/XMLSchema-instance" xsi:noNamespaceSchemaLocation="http://sumo.dlr.de/xsd/duarouterConfiguration.xsd">

    <input>
        <net-file value="wielun.net.xml"/>
        <route-files value="wielun.motorcycle.trips.xml"/>
    </input>

    <output>
        <output-file value="wielun.motorcycle.rou.xml"/>
        <alternatives-output value="NUL"/>
    </output>

    <processing>
        <remove-loops value="true"/>
    </processing>

    <time>
        <begin value="0.0"/>
        <end value="3600.0"/>
    </time>

    <report>
        <no-warnings value="true"/>
        <ignore-errors value="true"/>
        <no-step-log value="true"/>
    </report>

</configuration>
-->

<routes xmlns:xsi="http://www.w3.org/2001/XMLSchema-instance" xsi:noNamespaceSchemaLocation="http://sumo.dlr.de/xsd/routes_file.xsd">
    <vType id="motorcycle_motorcycle" vClass="motorcycle"/>
    <vehicle id="motorcycle0" type="motorcycle_motorcycle" depart="0.00" departLane="best" departSpeed="max">
        <route edges="42373465 -1152230290"/>
    </vehicle>
    <vehicle id="motorcycle1" type="motorcycle_motorcycle" depart="27.58" departLane="best">
        <route edges="-549008084 -549008080 -549008081 -549008079 -549008078 -237382756 -549008071 -549008074 -237382742#2 549008070 411763899#0 549008066"/>
    </vehicle>
    <vehicle id="motorcycle2" type="motorcycle_motorcycle" depart="55.17" departLane="best">
        <route edges="-549008063 1078784919 1078784920 1078784922 1046107949 1078784924#0 -549008056 -1046109807 549008057 549008055 549008052 549008051"/>
    </vehicle>
    <vehicle id="motorcycle3" type="motorcycle_motorcycle" depart="82.75" departLane="best">
        <route edges="777538784 -974646436 777538788 1196694175 777538792 -549008039#1 -319023535#2"/>
    </vehicle>
    <vehicle id="motorcycle4" type="motorcycle_motorcycle" depart="110.34" departLane="best">
        <route edges="439667057 -1189727142"/>
    </vehicle>
    <vehicle id="motorcycle5" type="motorcycle_motorcycle" depart="137.92" departLane="best">
        <route edges="-549008066 -549008067 -549008070 42336835#0"/>
    </vehicle>
    <vehicle id="motorcycle6" type="motorcycle_motorcycle" depart="165.50" departLane="best">
        <route edges="-549008066 -549008067 -549008070 42336835#0"/>
    </vehicle>
    <vehicle id="motorcycle7" type="motorcycle_motorcycle" depart="193.09" departLane="best">
        <route edges="549118393#0 549118396 549118397 1062301256 1148646859 974006868#0 974006868#1 974006868#2 974006867 -42336836 -1132700068 1062682404 962307427 -288875956 -1073046199"/>
    </vehicle>
    <vehicle id="motorcycle8" type="motorcycle_motorcycle" depart="220.67" departLane="best" departSpeed="max">
        <route edges="-319023546#1 -319023546#0"/>
    </vehicle>
    <vehicle id="motorcycle9" type="motorcycle_motorcycle" depart="248.25" departLane="best" departSpeed="max">
        <route edges="711814487 1149133719 974006864 1148646857 777538770 411763917 42340609 1196694169 194355534 769716780 720901625 248975819 1196696794 1196696795 1196696796 778096182 791651315 42340628#1"/>
    </vehicle>
    <vehicle id="motorcycle10" type="motorcycle_motorcycle" depart="275.84" departLane="best">
        <route edges="549118393#0 549118396 549118397 1062301256 1148646859 974006868#0 1134433961 -549008083#0 -549008084 -549008080 -549008081 -549008079 -549008078 -237382756 -549008071 -549008074 -237382742#2 42336835#0 549118408 549008065"/>
    </vehicle>
    <vehicle id="motorcycle11" type="motorcycle_motorcycle" depart="303.42" departLane="best">
        <route edges="319023542#0 42340641#0 549118422 319023535#0 319023535#1 549008039#0 777538793 1196694181 777538789 1237762219 777538785 1196694186 777538787 39122228 1062682404 962307427"/>
    </vehicle>
    <vehicle id="motorcycle12" type="motorcycle_motorcycle" depart="331.01" departLane="best">
        <route edges="549008062 549008063 288875953#0 237382742#0 549008074 549008071 319023556 549008078 549008079 549008081 549008080 549008084 549008083#0 549008085 319023554"/>
    </vehicle>
    <vehicle id="motorcycle13" type="motorcycle_motorcycle" depart="358.59" departLane="best">
        <route edges="549008055 549008052 549008051 1263276573 1046109808 -249826562 249826562 1078784913 1078784916 1046100143 1078784918 1078784915 1046109807 549008056 1046109806#0 549008060 549008059 549008062 549008063 288875953#0 237382742#0 549008074 549008071 319023556"/>
    </vehicle>
    <vehicle id="motorcycle14" type="motorcycle_motorcycle" depart="386.17" departLane="best">
        <route edges="-549008070 42336835#0 549118408 549008065 288875956 549118404 962307428 194296246 -39122228 777538786 1196694183 777538784 -974646436 777538788 1196694175 777538792 -549008039#1 -319023535#2 -319023535#0 -549118422"/>
    </vehicle>
    <vehicle id="motorcycle15" type="motorcycle_motorcycle" depart="413.76" departLane="best">
        <route edges="-319023542#1 -549008000 -549008043#2 -437406387#2 -549008066 -549008067 -549008070"/>
    </vehicle>
    <vehicle id="motorcycle16" type="motorcycle_motorcycle" depart="441.34" departLane="best">
        <route edges="-319023554 -549008085 -549008083#0 -549008084"/>
    </vehicle>
    <vehicle id="motorcycle17" type="motorcycle_motorcycle" depart="468.92" departLane="best">
        <route edges="1078784916 1046100143 1078784918 1078784915 1046109807 549008056"/>
    </vehicle>
    <vehicle id="motorcycle18" type="motorcycle_motorcycle" depart="496.51" departLane="best">
        <route edges="-549008000 -549008043#2 -437406387#2 -549008066 -549008067 -549008070 42336835#0 549118408 549008065"/>
    </vehicle>
    <vehicle id="motorcycle19" type="motorcycle_motorcycle" depart="524.09" departLane="best">
        <route edges="-437406387#2 -549008066 -549008067 -549008070 288875954#0 -549008063 1078784919 1078784920"/>
    </vehicle>
    <vehicle id="motorcycle20" type="motorcycle_motorcycle" depart="551.68" departLane="best">
        <route edges="974006865 331657131 1202362037 -1202362037 -331657131 1236950840 974006868#0 974006868#1 974006868#2 974006867 -42336836 -1132700068 1062682404 962307427 -288875956 -1073046199 288875955#0 549008070 411763899#0 549008066 438404111"/>
    </vehicle>
    <vehicle id="motorcycle21" type="motorcycle_motorcycle" depart="579.26" departLane="best">
        <route edges="709217977 974006868#2 974006867 -42336836 -1132700068 1062682404 962307427 -288875956 -1073046199 288875955#0 237382742#0 549008074 549008071 319023556 549008078 549008079 549008081 549008080 549008084 549008083#0"/>
    </vehicle>
    <vehicle id="motorcycle22" type="motorcycle_motorcycle" depart="606.84" departLane="best">
        <route edges="-549008070 288875954#0 -549008063 1078784919 1078784920 439667057"/>
    </vehicle>
    <vehicle id="motorcycle23" type="motorcycle_motorcycle" depart="634.43" departLane="best">
        <route edges="-437406387#2 -549008066 -549008067 -549008070 42336835#0 549118408 549008065 288875956 549118404 962307428 194296246 1132700068"/>
    </vehicle>
    <vehicle id="motorcycle24" type="motorcycle_motorcycle" depart="662.01" departLane="best">
        <route edges="777538789 1237762219 777538785 1196694186 1196694189 1196694183 777538784 -974646436 777538788 1196694175 777538792 -549008039#1 42340613#0 549008036 549008035 778096185 1196696796 1196696797 1196696798 1196696799 777538772 777538774 814268085 769716782 1196694173 42340610 1196694167 186938889 186938890"/>
    </vehicle>
    <vehicle id="motorcycle25" type="motorcycle_motorcycle" depart="689.60" departLane="best">
        <route edges="-549008081 -549008079 -549008078 -237382756 -549008071 -549008074"/>
    </vehicle>
    <vehicle id="motorcycle26" type="motorcycle_motorcycle" depart="717.18" departLane="best">
        <route edges="39122228 1062682404 962307427 -288875956 -1073046199 288875955#0 237382742#0 549008074 549008071 319023556 549008078 549008079 549008081 549008080"/>
    </vehicle>
    <vehicle id="motorcycle27" type="motorcycle_motorcycle" depart="744.76" departLane="best">
        <route edges="42340609 1196694169 1196694172 1196694173 42340610 1196694167 186938889 186938890 549118393#0 549118396 549118397 1062301256 1148646859 974006868#0 974006868#1 974006868#2 974006867 -42336836 -1132700068 -39122228 777538786 1196694183 777538784 -974646436 777538788"/>
    </vehicle>
    <vehicle id="motorcycle28" type="motorcycle_motorcycle" depart="772.35" departLane="best">
        <route edges="1078784924#0 -549008056 -1046109807 549008057 549008055 549008052 549008051 1263276573 1046109808 -249826562 249826562 1078784913 1078784916 1046100143 1078784918 1078784915 1046109807 549008056 1046109806#0 549008060 549008059 549008062 549008063 288875953#0 549008070 411763899#0 549008066"/>
    </vehicle>
    <vehicle id="motorcycle29" type="motorcycle_motorcycle" depart="799.93" departLane="best">
        <route edges="974006867 -42336836 -1132700068 1062682404 962307427 -288875956"/>
    </vehicle>
    <vehicle id="motorcycle30" type="motorcycle_motorcycle" depart="827.51" departLane="best" departSpeed="max">
        <route edges="-319023546#1 -319023546#0 -319023554 -549008085 -549008083#0 -549008084 -549008080 -549008081 -549008079 -549008078 -237382756"/>
    </vehicle>
    <vehicle id="motorcycle31" type="motorcycle_motorcycle" depart="855.10" departLane="best">
        <route edges="974006867 -42336836 -1132700068 1062682404 962307427 -288875956 -1073046199 288875955#0 549008070 411763899#0 549008066 438404111 549008043#0 42340648 319023542#0"/>
    </vehicle>
    <vehicle id="motorcycle32" type="motorcycle_motorcycle" depart="882.68" departLane="best">
        <route edges="814268085 769716782 1196694173 42340610 1196694167 186938889 186938890 549118393#0 549118396 549118397 1062301256 1148646859 974006868#0 974006868#1 974006868#2 1148646858 1148646857 777538770"/>
    </vehicle>
    <vehicle id="motorcycle33" type="motorcycle_motorcycle" depart="910.27" departLane="best">
        <route edges="-1132700068 1062682404 962307427 -288875956 -1073046199 288875955#0 288875954#0 -549008063"/>
    </vehicle>
    <vehicle id="motorcycle34" type="motorcycle_motorcycle" depart="937.85" departLane="best">
        <route edges="-549008043#2 -437406387#2 -549008066 -549008067 -549008070 237382742#0 549008074 549008071 319023556 549008078 549008079 549008081 549008080 549008084 549008083#0 549008085 319023554 319023546#0"/>
    </vehicle>
    <vehicle id="motorcycle35" type="motorcycle_motorcycle" depart="965.43" departLane="best">
        <route edges="-549008083#0 -549008084 -549008080 -549008081 -549008079 -549008078 -237382756 -549008071 -549008074 -237382742#2 288875954#0 -549008063 1078784919 1078784920 439667057"/>
    </vehicle>
    <vehicle id="motorcycle36" type="motorcycle_motorcycle" depart="993.02" departLane="best">
        <route edges="-39122228 777538786 1196694183 777538784 -974646436 777538788 1196694175 777538792 -549008039#1 42340613#0 549008036 549008035 778096185 1196696796 1196696797 1196696798 1196696799 777538772 777538774 814268085 769716782 1196694173 42340610 1196694167 186938889 186938890 549118393#0 549118396 549118397 1062301256 974006865 331657131 1202362037 -1202362037 -331657131 1236950840"/>
    </vehicle>
    <vehicle id="motorcycle37" type="motorcycle_motorcycle" depart="1020.60" departLane="best">
        <route edges="186938890 549118393#0 549118396 549118397 1062301256 1148646859 974006868#0 974006868#1 974006868#2 1148646858 1148646857 777538770 411763917 42340609 1196694169 194355534 769716780 720901625 248975819 1196696794 1196696795 1196696796 778096182 791651315"/>
    </vehicle>
    <vehicle id="motorcycle38" type="motorcycle_motorcycle" depart="1048.19" departLane="best">
        <route edges="777538789 1237762219 777538785 1196694186 1196694189 1196694183 777538784 -974646436 777538788 1196694175 777538792 -549008039#1 42340613#0 549008036 549008035 778096185 1196696796 1196696797 1196696798 1196696799 777538772 777538774"/>
    </vehicle>
    <vehicle id="motorcycle39" type="motorcycle_motorcycle" depart="1075.77" departLane="best" departSpeed="max">
        <route edges="42340628#0 42340628#1 319023527 -237264805#1 -319023535#2 -319023535#0 -549118422 -42340641#1"/>
    </vehicle>
    <vehicle id="motorcycle40" type="motorcycle_motorcycle" depart="1103.35" departLane="best">
        <route edges="549008074 549008071 319023556 549008078 549008079 549008081 549008080 549008084 549008083#0 549008085 319023554 319023546#0 319023546#1"/>
    </vehicle>
    <vehicle id="motorcycle41" type="motorcycle_motorcycle" depart="1130.94" departLane="best">
        <route edges="1046109807 549008056 1046109806#0 549008060 549008059 1078784922 1046107949"/>
    </vehicle>
    <vehicle id="motorcycle42" type="motorcycle_motorcycle" depart="1158.52" departLane="best">
        <route edges="777538774 814268085 769716782 1196694173 42340610 1196694167 1196694168 1196694169 194355534 769716780 720901625 248975819 1196696794 778096184 -549008035 -549008036 -249487869 -319023535#2 -319023535#0 -549118422"/>
    </vehicle>
    <vehicle id="motorcycle43" type="motorcycle_motorcycle" depart="1186.10" departLane="best">
        <route edges="777538774 814268085 769716782 1196694173 42340610 1196694167 1196694168 1196694169 194355534 769716780 720901625 248975819 1196696794 1196696795 1196696796 1196696797 1196696798 778096187"/>
    </vehicle>
    <vehicle id="motorcycle44" type="motorcycle_motorcycle" depart="1213.69" departLane="best">
        <route edges="-549008085 -549008083#0 -549008084 -549008080 -549008081 -549008079 -549008078 -237382756 -549008071 -549008074 -237382742#2 288875954#0 -549008063 1078784919 1078784920 1078784922 1046107949 1078784924#0 -549008056"/>
    </vehicle>
    <vehicle id="motorcycle45" type="motorcycle_motorcycle" depart="1241.27" departLane="best">
        <route edges="-319023546#0 -319023554 -549008085 -549008083#0 -549008084 -549008080 -549008081 -549008079 -549008078 -237382756 -549008071 -549008074 -237382742#2 42336835#0 549118408 549008065"/>
    </vehicle>
    <vehicle id="motorcycle46" type="motorcycle_motorcycle" depart="1268.86" departLane="best">
        <route edges="974006867 -42336836 -1132700068 -39122228 777538786 1196694183 777538784 -974646436 777538788 1196694175 777538792 -549008039#1 42340613#0 549008036 549008035"/>
    </vehicle>
    <vehicle id="motorcycle47" type="motorcycle_motorcycle" depart="1296.44" departLane="best">
        <route edges="-974646436 777538788 1196694175 777538792 -549008039#1 -319023535#2 -319023535#0"/>
    </vehicle>
    <vehicle id="motorcycle48" type="motorcycle_motorcycle" depart="1324.02" departLane="best">
        <route edges="-42336836 -1132700068 1062682404 962307427 -288875956 -1073046199 288875955#0 549008070 411763899#0 549008066"/>
    </vehicle>
    <vehicle id="motorcycle49" type="motorcycle_motorcycle" depart="1351.61" departLane="best">
        <route edges="1046109806#0 549008060 549008059 549008062 549008063 288875953#0 42336835#0"/>
    </vehicle>
    <vehicle id="motorcycle50" type="motorcycle_motorcycle" depart="1379.19" departLane="best">
        <route edges="549008070 411763899#0 549008066"/>
    </vehicle>
    <vehicle id="motorcycle51" type="motorcycle_motorcycle" depart="1406.77" departLane="best">
        <route edges="-319023535#0 -549118422 -42340641#1 -319023542#1 -549008000"/>
    </vehicle>
    <vehicle id="motorcycle52" type="motorcycle_motorcycle" depart="1434.36" departLane="best">
        <route edges="-549008070 42336835#0 549118408 549008065 288875956 549118404 962307428 194296246 -39122228 777538786 1196694183 777538784 -974646436 777538788 1196694175 777538792"/>
    </vehicle>
    <vehicle id="motorcycle53" type="motorcycle_motorcycle" depart="1461.94" departLane="best">
        <route edges="-549008071 -549008074 -237382742#2 549008070 411763899#0 549008066 438404111 -549008046#2"/>
    </vehicle>
    <vehicle id="motorcycle54" type="motorcycle_motorcycle" depart="1489.53" departLane="best">
        <route edges="778096183 1196696798 1196696799 777538772 1196696793 1196696794 778096184 -549008035 -549008036 -249487869 549008039#0 777538793 1196694181 777538789 1237762219 777538785 1196694186 777538787 39122228"/>
    </vehicle>
    <vehicle id="motorcycle55" type="motorcycle_motorcycle" depart="1517.11" departLane="best">
        <route edges="237382742#0 549008074 549008071 319023556 549008078 549008079 549008081 549008080 549008084"/>
    </vehicle>
    <vehicle id="motorcycle56" type="motorcycle_motorcycle" depart="1544.69" departLane="best">
        <route edges="549118393#0 549118396 549118397 1062301256 1148646859 974006868#0 974006868#1 974006868#2 974006867 -42336836 -1132700068 -39122228 777538786 1196694183 777538784 -974646436 777538788 1196694175 777538792 -549008039#1"/>
    </vehicle>
    <vehicle id="motorcycle57" type="motorcycle_motorcycle" depart="1572.28" departLane="best" departSpeed="max">
        <route edges="-319023546#1 -319023546#0"/>
    </vehicle>
    <vehicle id="motorcycle58" type="motorcycle_motorcycle" depart="1599.86" departLane="best">
        <route edges="549008062 549008063 288875953#0 549008070 411763899#0 549008066 438404111 -549008046#2"/>
    </vehicle>
    <vehicle id="motorcycle59" type="motorcycle_motorcycle" depart="1627.45" departLane="best">
        <route edges="1152230292 549008046#0 -437406387#2 -549008066 -549008067 -549008070 237382742#0 549008074 549008071 319023556 549008078 549008079 549008081 549008080 549008084"/>
    </vehicle>
    <vehicle id="motorcycle60" type="motorcycle_motorcycle" depart="1655.03" departLane="best">
        <route edges="974006867 -42336836 -1132700068 -39122228 777538786 1196694183 777538784 -974646436 777538788 1196694175 777538792 -549008039#1 -319023535#2 -319023535#0 -549118422"/>
    </vehicle>
    <vehicle id="motorcycle61" type="motorcycle_motorcycle" depart="1682.61" departLane="best">
        <route edges="814268085 769716782 1196694173 42340610 1196694167 1196694168 1196694169 194355534 769716780 720901625 248975819 1196696794 1196696795 1196696796 778096182 791651315 -792659379 778096183"/>
    </vehicle>
    <vehicle id="motorcycle62" type="motorcycle_motorcycle" depart="1710.20" departLane="best" departSpeed="max">
        <route edges="-1132700068 1062682404 962307427 -288875956 -1073046199 288875955#0 549008070 411763899#0 549008066 438404111"/>
    </vehicle>
    <vehicle id="motorcycle63" type="motorcycle_motorcycle" depart="1737.78" departLane="best">
        <route edges="549008081 549008080 549008084"/>
    </vehicle>
    <vehicle id="motorcycle64" type="motorcycle_motorcycle" depart="1765.36" departLane="best">
        <route edges="186938890 549118393#0 549118396 549118397 1062301256 974006865 331657131 1202362037"/>
    </vehicle>
    <vehicle id="motorcycle65" type="motorcycle_motorcycle" depart="1792.95" departLane="best">
        <route edges="778096187 792723120 -792723120 778096186 777538772 777538774 814268085 769716782 1196694173 42340610 1196694167 186938889 186938890 549118393#0 549118396 549118397 1062301256 1148646859 974006868#0 974006868#1 974006868#2 974006867"/>
    </vehicle>
    <vehicle id="motorcycle66" type="motorcycle_motorcycle" depart="1820.53" departLane="best" departSpeed="max">
        <route edges="-42340647 -42340642#1 42340641#0 549118422 319023535#0 319023535#1 237264805#1 -319023527 -42340628#1 -792659379"/>
    </vehicle>
    <vehicle id="motorcycle67" type="motorcycle_motorcycle" depart="1848.12" departLane="best">
        <route edges="814268085 769716782 1196694173 42340610 1196694167 186938889 186938890 549118393#0 549118396 549118397 1062301256 1148646859 974006868#0 974006868#1 974006868#2 1148646858 1148646857 777538770 411763917"/>
    </vehicle>
    <vehicle id="motorcycle68" type="motorcycle_motorcycle" depart="1875.70" departLane="best">
        <route edges="-319023546#0 -319023554 -549008085 -549008083#0 -549008084 -549008080 -549008081 -549008079 -549008078 -237382756 -549008071 -549008074"/>
    </vehicle>
    <vehicle id="motorcycle69" type="motorcycle_motorcycle" depart="1903.28" departLane="best">
        <route edges="-288875956 -1073046199 288875955#0 237382742#0 549008074 549008071 319023556 549008078 549008079 549008081 549008080 549008084 549008083#0 709217977 974006868#2 1148646858 1148646857 777538770 411763917"/>
    </vehicle>
    <vehicle id="motorcycle70" type="motorcycle_motorcycle" depart="1930.87" departLane="best" departSpeed="max">
        <route edges="-42340647 -42340642#1 42340641#0 549118422 319023535#0 319023535#1 42340613#0 549008036 549008035 778096185 1196696796 1196696797 1196696798 778096187 792723120"/>
    </vehicle>
    <vehicle id="motorcycle71" type="motorcycle_motorcycle" depart="1958.45" departLane="best">
        <route edges="-319023542#1 -549008000 -549008043#2 -437406387#2 -549008066 -549008067 -549008070 42336835#0 549118408 549008065 288875956 549118404 962307428 194296246 -39122228 777538786 1196694183 777538784 -974646436 777538788 1196694175 777538792 -549008039#1"/>
    </vehicle>
    <vehicle id="motorcycle72" type="motorcycle_motorcycle" depart="1986.04" departLane="best">
        <route edges="-549008071 -549008074 -237382742#2 42336835#0 549118408 549008065 288875956 549118404 962307428 194296246 1132700068 1149133719"/>
    </vehicle>
    <vehicle id="motorcycle73" type="motorcycle_motorcycle" depart="2013.62" departLane="best">
        <route edges="777538785 1196694186 777538787 39122228 1062682404 962307427 -288875956 -1073046199 288875955#0 237382742#0 549008074"/>
    </vehicle>
    <vehicle id="motorcycle74" type="motorcycle_motorcycle" depart="2041.20" departLane="best">
        <route edges="319023535#0 319023535#1 42340613#0 549008036 549008035 778096185"/>
    </vehicle>
    <vehicle id="motorcycle75" type="motorcycle_motorcycle" depart="2068.79" departLane="best">
        <route edges="-549008048 -1189727142 549008062"/>
    </vehicle>
    <vehicle id="motorcycle76" type="motorcycle_motorcycle" depart="2096.37" departLane="best">
        <route edges="-549008071 -549008074 -237382742#2 42336835#0 549118408 549008065 288875956 549118404 962307428 194296246 1132700068"/>
    </vehicle>
    <vehicle id="motorcycle77" type="motorcycle_motorcycle" depart="2123.95" departLane="best">
        <route edges="-549008036 -249487869 549008039#0 777538793 1196694181 777538789 1237762219"/>
    </vehicle>
    <vehicle id="motorcycle78" type="motorcycle_motorcycle" depart="2151.54" departLane="best">
        <route edges="319023535#1 42340613#0 549008036 549008035 778096185 1196696796 1196696797 1196696798 1196696799 777538772 777538774 814268085 769716782 1196694173 42340610 1196694167 186938889 186938890"/>
    </vehicle>
    <vehicle id="motorcycle79" type="motorcycle_motorcycle" depart="2179.12" departLane="best">
        <route edges="974006867"/>
    </vehicle>
    <vehicle id="motorcycle80" type="motorcycle_motorcycle" depart="2206.71" departLane="best">
        <route edges="777538774 814268085 769716782 1196694173 42340610 1196694167 1196694168 1196694169 194355534 769716780 720901625 248975819 1196696794 778096184 -549008035 -549008036 -249487869 549008039#0 777538793 1196694181 777538789 1237762219 777538785"/>
    </vehicle>
    <vehicle id="motorcycle81" type="motorcycle_motorcycle" depart="2234.29" departLane="best">
        <route edges="549118422 319023535#0 319023535#1 549008039#0 777538793 1196694181 777538789 1237762219 777538785 1196694186 777538787 39122228 1062682404 962307427 -288875956 -1073046199 288875955#0 288875954#0 -549008063 1078784919 1078784920 1078784922"/>
    </vehicle>
    <vehicle id="motorcycle82" type="motorcycle_motorcycle" depart="2261.87" departLane="best">
        <route edges="-437406387#2 -549008066 -549008067 -549008070 42336835#0 549118408 549008065"/>
    </vehicle>
    <vehicle id="motorcycle83" type="motorcycle_motorcycle" depart="2289.46" departLane="best">
        <route edges="549118397 1062301256 1148646859 974006868#0 974006868#1 974006868#2 974006867 -42336836 -1132700068 -39122228 777538786 1196694183 777538784 -974646436"/>
    </vehicle>
    <vehicle id="motorcycle84" type="motorcycle_motorcycle" depart="2317.04" departLane="best">
        <route edges="549008035 778096185 1196696796 1196696797 1196696798 778096187 792723120 -792723120 778096186"/>
    </vehicle>
    <vehicle id="motorcycle85" type="motorcycle_motorcycle" depart="2344.62" departLane="best">
        <route edges="-42340642#1 -319023542#1 -549008000 -549008043#2 -437406387#2 -549008066 -549008067 -549008070 42336835#0 549118408 549008065 288875956 549118404 962307428 194296246 -39122228"/>
    </vehicle>
    <vehicle id="motorcycle86" type="motorcycle_motorcycle" depart="2372.21" departLane="best">
        <route edges="549008059 549008062 549008063 288875953#0 549008070 411763899#0 549008066 438404111 -549008046#2 -549008048"/>
    </vehicle>
    <vehicle id="motorcycle87" type="motorcycle_motorcycle" depart="2399.79" departLane="best">
        <route edges="-549008000 -549008043#2 -437406387#2 -549008066 -549008067 -549008070 237382742#0 549008074 549008071 319023556 549008078 549008079 549008081 549008080"/>
    </vehicle>
    <vehicle id="motorcycle88" type="motorcycle_motorcycle" depart="2427.38" departLane="best" departSpeed="max">
        <route edges="-1132700068 -39122228 777538786 1196694183 777538784 -974646436 777538788 1196694175 777538792 -549008039#1 -319023535#2 -319023535#0 -549118422 -42340641#1 -319023542#1"/>
    </vehicle>
    <vehicle id="motorcycle89" type="motorcycle_motorcycle" depart="2454.96" departLane="best">
        <route edges="-549008085 -549008083#0 -549008084"/>
    </vehicle>
    <vehicle id="motorcycle90" type="motorcycle_motorcycle" depart="2482.54" departLane="best">
        <route edges="1046109807 549008056 1046109806#0 549008060 549008059 549008062 549008063 288875953#0 237382742#0 549008074 549008071 319023556 549008078 549008079 549008081"/>
    </vehicle>
    <vehicle id="motorcycle91" type="motorcycle_motorcycle" depart="2510.13" departLane="best">
        <route edges="-549008000 -549008043#2 -437406387#2 -549008066 -549008067 -549008070 237382742#0 549008074 549008071 319023556 549008078 549008079 549008081 549008080"/>
    </vehicle>
    <vehicle id="motorcycle92" type="motorcycle_motorcycle" depart="2537.71" departLane="best">
        <route edges="549008065 288875956 549118404 962307428 194296246 1132700068 1149133719 974006864 1148646857 1148646856 1062301256 1148646859 974006868#0 1134433961 549008085 319023554"/>
    </vehicle>
    <vehicle id="motorcycle93" type="motorcycle_motorcycle" depart="2565.30" departLane="best">
        <route edges="-549008085 709217977 974006868#2 974006867 -42336836 -1132700068 1062682404 962307427 -288875956 -1073046199"/>
    </vehicle>
    <vehicle id="motorcycle94" type="motorcycle_motorcycle" depart="2592.88" departLane="best">
        <route edges="-319023535#2 -319023535#0 -549118422 -42340641#1 -319023542#1 -549008000 -549008043#2 -437406387#2 -549008066 -549008067 -549008070 42336835#0 549118408 549008065 288875956 549118404 962307428 194296246 -39122228 777538786"/>
    </vehicle>
    <vehicle id="motorcycle95" type="motorcycle_motorcycle" depart="2620.46" departLane="best">
        <route edges="549118422 319023535#0 319023535#1 42340613#0 549008036 549008035 778096185 1196696796 1196696797 1196696798 1196696799 777538772 777538774 814268085 769716782 1196694173 42340610 1196694167 186938889 186938890 549118393#0 549118396 549118397 1062301256 1148646859 974006868#0 974006868#1 974006868#2 1148646858 1148646857 777538770 411763917"/>
    </vehicle>
    <vehicle id="motorcycle96" type="motorcycle_motorcycle" depart="2648.05" departLane="best">
        <route edges="-974646436 777538788"/>
    </vehicle>
    <vehicle id="motorcycle97" type="motorcycle_motorcycle" depart="2675.63" departLane="best">
        <route edges="549008078 549008079 549008081 549008080 549008084 549008083#0 549008085 319023554"/>
    </vehicle>
    <vehicle id="motorcycle98" type="motorcycle_motorcycle" depart="2703.21" departLane="best" departSpeed="max">
        <route edges="-42340647 -42340642#1 42340641#0 549118422 319023535#0 319023535#1 42340613#0 549008036 549008035 778096185"/>
    </vehicle>
    <vehicle id="motorcycle99" type="motorcycle_motorcycle" depart="2730.80" departLane="best">
        <route edges="769716780 720901625 248975819 1196696794 1196696795 1196696796 1196696797 1196696798 1196696799 777538772 777538774 814268085 769716782 1196694173 42340610 1196694167 186938889 186938890 549118393#0 549118396 549118397 1062301256 1148646859 974006868#0 974006868#1 974006868#2 974006867 -42336836 -1132700068 1062682404 962307427"/>
    </vehicle>
    <vehicle id="motorcycle100" type="motorcycle_motorcycle" depart="2758.38" departLane="best">