<?xml version="1.0" encoding="UTF-8"?>

<!-- generated on 2024-04-17 22:29:16 by Eclipse SUMO netedit Version 1.19.0
-->

<additional xmlns:xsi="http://www.w3.org/2001/XMLSchema-instance" xsi:noNamespaceSchemaLocation="http://sumo.dlr.de/xsd/additional_file.xsd">
    <!-- TAZs -->
    <taz id="taz_0" shape="1345.49,2788.51 1531.13,2807.86 1631.89,2222.81 1422.28,2192.36 1343.82,2788.42 1345.49,2788.51" fill="1" color="blue">
        <tazSource id="-319023546#1" weight="1.00"/>
        <tazSink id="-319023546#1" weight="1.00"/>
        <tazSource id="319023546#1" weight="1.00"/>
        <tazSink id="319023546#1" weight="1.00"/>
    </taz>
    <taz id="taz_1" shape="98.63,2329.05 23.91,2238.88 941.06,1768.72 1002.89,1884.65 96.05,2329.05 98.63,2329.05" fill="1" name="EE" color="0,203,255">
        <tazSource id="-249826562" weight="1.00"/>
        <tazSink id="-249826562" weight="1.00"/>
        <tazSource id="1046100143" weight="1.00"/>
        <tazSink id="1046100143" weight="1.00"/>
        <tazSource id="1046109808" weight="1.00"/>
        <tazSink id="1046109808" weight="1.00"/>
        <tazSource id="1078784913" weight="1.00"/>
        <tazSink id="1078784913" weight="1.00"/>
        <tazSource id="1078784915" weight="1.00"/>
        <tazSink id="1078784915" weight="1.00"/>
        <tazSource id="1078784916" weight="1.00"/>
        <tazSink id="1078784916" weight="1.00"/>
        <tazSource id="1078784918" weight="1.00"/>
        <tazSink id="1078784918" weight="1.00"/>
        <tazSource id="1263276573" weight="1.00"/>
        <tazSink id="1263276573" weight="1.00"/>
        <tazSource id="249826562" weight="1.00"/>
        <tazSink id="249826562" weight="1.00"/>
        <tazSource id="549008051" weight="1.00"/>
        <tazSink id="549008051" weight="1.00"/>
        <tazSource id="549008052" weight="1.00"/>
        <tazSink id="549008052" weight="1.00"/>
        <tazSource id="549008055" weight="1.00"/>
        <tazSink id="549008055" weight="1.00"/>
        <tazSource id="549008057" weight="1.00"/>
        <tazSink id="549008057" weight="1.00"/>
    </taz>
    <taz id="taz_10" shape="1628.98,2223.84 1865.58,2225.56 1867.29,2328.43 2126.18,2331.86 2244.48,2203.27 2642.25,2237.56 2767.40,2201.55 2726.26,2040.39 2717.68,1997.53 2997.15,1805.51 2841.28,1495.49 2874.02,1395.74 2618.40,1342.75 2350.31,1286.64 2390.84,1451.85 2587.23,1458.09 2556.05,1749.55 2369.02,1984.90 2061.97,1958.41 2071.32,1794.75 2021.44,1776.05 2041.70,1646.68 1522.68,1660.71 1489.95,2204.67 1636.46,2223.37 1628.98,2223.84" fill="1" color="128,0,0">
        <tazSource id="-1202362037" weight="1.00"/>
        <tazSink id="-1202362037" weight="1.00"/>

        <tazSink id="549008074" weight="0.2"/>
        <tazSink id="-549008074" weight="0.2"/>

        <tazSource id="-331657131" weight="1.00"/>
        <tazSink id="-331657131" weight="1.00"/>
        <tazSource id="-42336836" weight="1.00"/>
        <tazSink id="-42336836" weight="1.00"/>
        <tazSource id="1134433961" weight="0.20"/>
        <tazSink id="1134433961" weight="0.20"/>
        <tazSource id="1149133719" weight="1.00"/>
        <tazSink id="1149133719" weight="1.00"/>
        <tazSource id="1202362037" weight="1.00"/>
        <tazSink id="1202362037" weight="1.00"/>
        <tazSource id="331657131" weight="1.00"/>
        <tazSink id="331657131" weight="1.00"/>
        <tazSource id="709217977" weight="0.2"/>
        <tazSink id="709217977" weight="0.2"/>
        <tazSource id="974006865" weight="1.00"/>
        <tazSink id="974006865" weight="1.00"/>
    </taz>
    <taz id="taz_2" shape="1894.49,606.77 1920.04,263.98 1871.07,187.33 1910.46,158.58 1977.52,245.88 1946.65,612.09 1894.49,606.77" fill="1" name="EE" color="30,125,219">
        <tazSource id="-42340647" weight="1.00"/>
        <tazSink id="-42340647" weight="1.00"/>
        <tazSource id="42340647" weight="1.00"/>
        <tazSink id="42340647" weight="1.00"/>
    </taz>
    <taz id="taz_3" shape="2862.20,424.52 2839.02,372.99 2623.90,474.76 2649.66,522.42 2860.92,423.23 2862.20,424.52" fill="1" name="EE" color="101,131,231">
        <tazSource id="-792723120" weight="1.00"/>
        <tazSink id="-792723120" weight="1.00"/>
        <tazSource id="792723120" weight="1.00"/>
        <tazSink id="792723120" weight="1.00"/>
    </taz>
    <taz id="taz_4" shape="2479.57,354.39 2585.20,234.59 2649.61,80.02 2705.00,100.63 2638.01,255.20 2525.95,384.02 2480.86,354.39 2479.57,354.39" fill="1" name="EE" color="106,101,231">
        <tazSource id="-42340628#0" weight="1.00"/>
        <tazSink id="-42340628#0" weight="1.00"/>
        <tazSource id="42340628#0" weight="1.00"/>
        <tazSink id="42340628#0" weight="1.00"/>
    </taz>
    <taz id="taz_5" shape="2590.26,1225.36 2544.21,908.87 2448.49,926.02 2397.42,662.62 1967.82,774.33 1927.94,647.04 1931.22,610.99 1947.06,612.63 1970.24,336.93 2230.68,286.70 2388.00,255.63 2572.48,503.38 2563.54,534.67 2577.95,550.56 2602.78,550.07 2608.48,556.73 2649.12,523.52 2806.62,449.10 3104.21,313.70 3228.74,720.49 3086.37,1351.55 2865.72,1300.87 2590.32,1224.94 2590.26,1225.36" fill="1" color="green">
        <tazSource id="-237264805#1" weight="1.00"/>
        <tazSink id="-237264805#1" weight="1.00"/>
        <tazSource id="-249487869" weight="1.00"/>
        <tazSink id="-249487869" weight="1.00"/>
        <tazSource id="-319023527" weight="1.00"/>
        <tazSink id="-319023527" weight="1.00"/>
        <tazSource id="-42340627" weight="1.00"/>
        <tazSink id="-42340627" weight="1.00"/>
        <tazSource id="-42340628#1" weight="1.00"/>
        <tazSink id="-42340628#1" weight="1.00"/>
        <tazSource id="-549008035" weight="1.00"/>
        <tazSink id="-549008035" weight="1.00"/>
        <tazSource id="-549008036" weight="1.00"/>
        <tazSink id="-549008036" weight="1.00"/>
        <tazSource id="1030991935" weight="1.00"/>
        <tazSink id="1030991935" weight="1.00"/>
        <tazSource id="1196694167" weight="1.00"/>
        <tazSink id="1196694167" weight="1.00"/>
        <tazSource id="186938890" weight="1.00"/>
        <tazSink id="186938890" weight="1.00"/>
        <tazSource id="194355534" weight="1.00"/>
        <tazSink id="194355534" weight="1.00"/>
        <tazSource id="237264805#1" weight="1.00"/>
        <tazSink id="237264805#1" weight="1.00"/>
        <tazSource id="319023527" weight="1.00"/>
        <tazSink id="319023527" weight="1.00"/>
        <tazSource id="42340609" weight="1.00"/>
        <tazSink id="42340609" weight="1.00"/>
        <tazSource id="42340613#0" weight="1.00"/>
        <tazSink id="42340613#0" weight="1.00"/>
        <tazSource id="42340627" weight="1.00"/>
        <tazSink id="42340627" weight="1.00"/>
        <tazSource id="42340628#1" weight="1.00"/>
        <tazSink id="42340628#1" weight="1.00"/>
        <tazSource id="549008035" weight="1.00"/>
        <tazSink id="549008035" weight="1.00"/>
        <tazSource id="549008036" weight="1.00"/>
        <tazSink id="549008036" weight="1.00"/>
        <tazSource id="720901625" weight="1.00"/>
        <tazSink id="720901625" weight="1.00"/>
        <tazSource id="769716780" weight="1.00"/>
        <tazSink id="769716780" weight="1.00"/>
        <tazSource id="769716782" weight="1.00"/>
        <tazSink id="769716782" weight="1.00"/>
        <tazSource id="777538774" weight="1.00"/>
        <tazSink id="777538774" weight="1.00"/>
        <tazSource id="814268085" weight="1.00"/>
        <tazSink id="814268085" weight="1.00"/>
    </taz>
    <taz id="taz_6" shape="1558.43,1536.03 1565.70,1352.93 1847.95,1325.16 2114.34,1443.48 2350.32,1296.08 2387.34,1452.08 2585.64,1458.03 2554.71,1749.60 2369.29,1984.46 2065.36,1958.28 2070.45,1791.77 2023.19,1775.05 2042.82,1643.44 1682.17,1652.89 1660.36,1625.99 1660.36,1536.55 1557.84,1535.10 1558.43,1536.03" fill="1" color="75,133,75">
        <tazSource id="-288875956" weight="1.00"/>
        <tazSink id="-288875956" weight="1.00"/>
        <tazSource id="288875956" weight="1.00"/>
        <tazSink id="288875956" weight="1.00"/>
        <tazSource id="549118404" weight="1.00"/>
        <tazSink id="549118404" weight="1.00"/>
        <tazSource id="962307427" weight="1.00"/>
        <tazSink id="962307427" weight="1.00"/>
        <tazSource id="962307428" weight="1.00"/>
        <tazSink id="962307428" weight="1.00"/>
    </taz>
    <taz id="taz_7" shape="510.79,2408.34 520.37,2124.10 1003.68,1883.50 967.49,1815.37 1125.05,1745.11 1133.56,1762.14 1227.24,1715.30 1225.11,1813.24 1463.58,1978.25 1539.16,1976.12 1532.78,2085.77 1499.77,2082.58 1489.13,2201.81 1421.00,2190.10 1411.41,2262.49 510.79,2408.34" fill="1" color="135,225,135">
        <tazSource id="-1046109807" weight="1.00"/>
        <tazSink id="-1046109807" weight="1.00"/>
        <tazSource id="-549008056" weight="1.00"/>
        <tazSink id="-549008056" weight="1.00"/>
        <tazSource id="-549008078" weight="1.00"/>
        <tazSink id="-549008078" weight="1.00"/>
        <tazSource id="-549008079" weight="1.00"/>
        <tazSink id="-549008079" weight="1.00"/>
        <tazSource id="-549008080" weight="1.00"/>
        <tazSink id="-549008080" weight="1.00"/>
        <tazSource id="-549008081" weight="1.00"/>
        <tazSink id="-549008081" weight="1.00"/>
        <tazSource id="-549008083#0" weight="1.00"/>
        <tazSink id="-549008083#0" weight="1.00"/>
        <tazSource id="-549008084" weight="1.00"/>
        <tazSink id="-549008084" weight="1.00"/>
        <tazSource id="1046107949" weight="1.00"/>
        <tazSink id="1046107949" weight="1.00"/>
        <tazSource id="1046109806#0" weight="1.00"/>
        <tazSink id="1046109806#0" weight="1.00"/>
        <tazSource id="1046109807" weight="1.00"/>
        <tazSink id="1046109807" weight="1.00"/>
        <tazSource id="1078784915" weight="1.00"/>
        <tazSink id="1078784915" weight="1.00"/>
        <tazSource id="1078784924#0" weight="1.00"/>
        <tazSink id="1078784924#0" weight="1.00"/>
        <tazSource id="549008056" weight="1.00"/>
        <tazSink id="549008056" weight="1.00"/>
        <tazSource id="549008057" weight="1.00"/>
        <tazSink id="549008057" weight="1.00"/>
        <tazSource id="549008059" weight="1.00"/>
        <tazSink id="549008059" weight="1.00"/>
        <tazSource id="549008060" weight="1.00"/>
        <tazSink id="549008060" weight="1.00"/>
        <tazSource id="549008078" weight="1.00"/>
        <tazSink id="549008078" weight="1.00"/>
        <tazSource id="549008079" weight="1.00"/>
        <tazSink id="549008079" weight="1.00"/>
        <tazSource id="549008080" weight="1.00"/>
        <tazSink id="549008080" weight="1.00"/>
        <tazSource id="549008081" weight="1.00"/>
        <tazSink id="549008081" weight="1.00"/>
        <tazSource id="549008083#0" weight="1.00"/>
        <tazSink id="549008083#0" weight="1.00"/>
        <tazSource id="549008084" weight="1.00"/>
        <tazSink id="549008084" weight="1.00"/>
    </taz>
    <taz id="taz_8" shape="940.64,1767.33 1446.88,1554.79 1418.54,1128.42 1600.16,1018.93 1633.65,984.15 1938.94,787.07 1893.86,606.73 1919.62,261.51 1870.67,188.09 1595.01,380.02 1566.67,338.80 1300.03,340.09 1080.82,350.12 769.64,242.62 603.68,193.59 411.31,1321.38 938.96,1767.65 940.64,1767.33" fill="1" color="0,66,0">
        <tazSource id="-1152230290" weight="1.00"/>
        <tazSink id="-1152230290" weight="1.00"/>
        <tazSource id="-1189727142" weight="1.00"/>
        <tazSink id="-1189727142" weight="1.00"/>
        <tazSource id="-42340646" weight="1.00"/>
        <tazSink id="-42340646" weight="1.00"/>
        <tazSource id="-549008048" weight="1.00"/>
        <tazSink id="-549008048" weight="1.00"/>
        <tazSource id="1152230292" weight="1.00"/>
        <tazSink id="1152230292" weight="1.00"/>
        <tazSource id="42373465" weight="1.00"/>
        <tazSink id="42373465" weight="1.00"/>
        <tazSource id="439667057" weight="1.00"/>
        <tazSink id="439667057" weight="1.00"/>
        <tazSource id="549118415" weight="1.00"/>
        <tazSink id="549118415" weight="1.00"/>
    </taz>
    <taz id="taz_9" shape="1545.73,1353.97 1847.85,1324.69 2093.77,1430.09 2343.20,1276.68 2849.08,1390.27 2865.47,1301.27 2590.28,1225.16 2543.44,908.98 2448.59,926.55 2400.58,684.14 1973.15,801.25 1418.33,1128.24 1442.58,1435.87 1543.05,1441.81 1545.70,1353.24 1545.73,1353.97" fill="1" color="red">
        <tazSource id="-39122228" weight="1.00"/>
        <tazSink id="-39122228" weight="1.00"/>
        <tazSource id="-437406387#2" weight="1.00"/>
        <tazSink id="-437406387#2" weight="1.00"/>
        <tazSource id="-549008000" weight="1.00"/>
        <tazSink id="-549008000" weight="1.00"/>
        <tazSource id="-549008039#1" weight="1.00"/>
        <tazSink id="-549008039#1" weight="1.00"/>
        <tazSource id="-549008043#2" weight="1.00"/>
        <tazSink id="-549008043#2" weight="1.00"/>
        <tazSource id="-549008046#2" weight="1.00"/>
        <tazSink id="-549008046#2" weight="1.00"/>
        <tazSource id="-974646436" weight="1.00"/>
        <tazSink id="-974646436" weight="1.00"/>
        <tazSource id="1237762219" weight="1.00"/>
        <tazSink id="1237762219" weight="1.00"/>
        <tazSource id="39122228" weight="1.00"/>
        <tazSink id="39122228" weight="1.00"/>
        <tazSource id="411763917" weight="1.00"/>
        <tazSink id="411763917" weight="1.00"/>
        <tazSource id="42340648" weight="1.00"/>
        <tazSink id="42340648" weight="1.00"/>
        <tazSource id="438404111" weight="1.00"/>
        <tazSink id="438404111" weight="1.00"/>
        <tazSource id="549008039#0" weight="1.00"/>
        <tazSink id="549008039#0" weight="1.00"/>
        <tazSource id="549008043#0" weight="1.00"/>
        <tazSink id="549008043#0" weight="1.00"/>
        <tazSource id="549008046#0" weight="1.00"/>
        <tazSink id="549008046#0" weight="1.00"/>
        <tazSource id="549118393#0" weight="1.00"/>
        <tazSink id="549118393#0" weight="1.00"/>
        <tazSource id="549118396" weight="1.00"/>
        <tazSink id="549118396" weight="1.00"/>
        <tazSource id="711814487" weight="1.00"/>
        <tazSink id="711814487" weight="1.00"/>
        <tazSource id="777538770" weight="1.00"/>
        <tazSink id="777538770" weight="1.00"/>
        <tazSource id="777538784" weight="1.00"/>
        <tazSink id="777538784" weight="1.00"/>
        <tazSource id="777538785" weight="1.00"/>
        <tazSink id="777538785" weight="1.00"/>
    </taz>
</additional>
