<?xml version="1.0" encoding="UTF-8"?>

<!-- generated on 2024-04-14 22:26:07.414027 by randomTrips.py v1_19_0+0000-baa66a0f364
<configuration>
    <net-file value="wielun.net.xml"/>
    <output-trip-file value="wielun.passenger.trips.xml"/>
    <route-file value="wielun.passenger.rou.xml"/>
    <prefix value="veh"/>
    <trip-attributes value="departLane=&quot;best&quot;"/>
    <fringe-start-attributes value="departSpeed=&quot;max&quot;"/>
    <vehicle-class value="passenger"/>
    <lanes value="True"/>
    <fringe-factor value="5"/>
    <allow-fringe.min-length value="1000.0"/>
    <via-edge-types value="highway.motorway,highway.motorway_link,highway.trunk_link,highway.primary_link,highway.secondary_link,highway.tertiary_link"/>
    <min-distance value="300.0"/>
    <min-distance.fringe value="10.0"/>
    <remove-loops value="True"/>
    <validate value="True"/>
    <insertion-density value="12.0"/>
</configuration>
-->

<!-- generated on 2024-04-14 22:26:07 by Eclipse SUMO duarouter Version 1.19.0
<configuration xmlns:xsi="http://www.w3.org/2001/XMLSchema-instance" xsi:noNamespaceSchemaLocation="http://sumo.dlr.de/xsd/duarouterConfiguration.xsd">

    <input>
        <net-file value="wielun.net.xml"/>
        <route-files value="wielun.passenger.trips.xml"/>
    </input>

    <output>
        <output-file value="wielun.passenger.rou.xml"/>
        <alternatives-output value="NUL"/>
    </output>

    <processing>
        <remove-loops value="true"/>
    </processing>

    <time>
        <begin value="0.0"/>
        <end value="3600.0"/>
    </time>

    <report>
        <no-warnings value="true"/>
        <ignore-errors value="true"/>
        <no-step-log value="true"/>
    </report>

</configuration>
-->

<routes xmlns:xsi="http://www.w3.org/2001/XMLSchema-instance" xsi:noNamespaceSchemaLocation="http://sumo.dlr.de/xsd/routes_file.xsd">
    <vType id="veh_passenger" vClass="passenger"/>
    <vehicle id="veh0" type="veh_passenger" depart="0.00" departLane="best">
        <route edges="42340628#1 319023527 -237264805#1 -319023535#2 -319023535#0 -549118422 -42340641#1 -319023542#1 -549008000 -549008043#2 -549008046#2 -549008048 -1152230290"/>
    </vehicle>
    <vehicle id="veh1" type="veh_passenger" depart="9.19" departLane="best">
        <route edges="-549008080 -549008081 -549008079 -549008078 -237382756 -549008071 -549008074 -237382742#2 549008070 411763899#0 549008066 438404111 -549008046#2"/>
    </vehicle>
    <vehicle id="veh2" type="veh_passenger" depart="18.39" departLane="best">
        <route edges="549008059 549008062 549008063 288875953#0 549008070 411763899#0 549008066 438404111 549008043#0"/>
    </vehicle>
    <vehicle id="veh3" type="veh_passenger" depart="27.58" departLane="best">
        <route edges="769716782 1196694173 42340610 1196694167 186938889 186938890 549118393#0 549118396 549118397 1062301256 1148646859 974006868#0 974006868#1 974006868#2 974006867 -42336836 -1132700068 1062682404 962307427 -288875956"/>
    </vehicle>
    <vehicle id="veh4" type="veh_passenger" depart="36.78" departLane="best">
        <route edges="-549008085 -549008083#0 -549008084 -549008080 -549008081 -549008079 -549008078 -237382756 -549008071 -549008074 -237382742#2 549008070 411763899#0 549008066 438404111 -549008046#2 -549008048 -1152230290"/>
    </vehicle>
    <vehicle id="veh5" type="veh_passenger" depart="45.97" departLane="best">
        <route edges="549008046#0 -437406387#2 -549008066 -549008067 -549008070 42336835#0"/>
    </vehicle>
    <vehicle id="veh6" type="veh_passenger" depart="55.17" departLane="best" departSpeed="max">
        <route edges="-1202362037 -331657131 1236950840 974006868#0 974006868#1 974006868#2 974006867 -42336836 -1132700068 -39122228 777538786 1196694183 777538784 -974646436 777538788 1196694175 777538792 -549008039#1 -319023535#2 -319023535#0 -549118422 -42340641#1 -319023542#1 -549008000"/>
    </vehicle>
    <vehicle id="veh7" type="veh_passenger" depart="64.36" departLane="best">
        <route edges="-42340642#1 -319023542#1 -549008000 -549008043#2 -437406387#2 -549008066 -549008067 -549008070 237382742#0 549008074 549008071 319023556 549008078 549008079 549008081 549008080 549008084 549008083#0 549008085 319023554 319023546#0"/>
    </vehicle>
    <vehicle id="veh8" type="veh_passenger" depart="73.56" departLane="best">
        <route edges="-549008046#2 -549008048 -1189727142 549008062 549008063 288875953#0 549008070 411763899#0"/>
    </vehicle>
    <vehicle id="veh9" type="veh_passenger" depart="82.75" departLane="best">
        <route edges="549008083#0 709217977 974006868#2 974006867 -42336836 -1132700068 1062682404 962307427 -288875956 -1073046199"/>
    </vehicle>
    <vehicle id="veh10" type="veh_passenger" depart="91.95" departLane="best">
        <route edges="-549008081 -549008079 -549008078 -237382756 -549008071 -549008074 -237382742#2 288875954#0 -549008063 1078784919 1078784920 1078784922 1046107949 1078784924#0 -549008056 -1046109807 549008057 549008055"/>
    </vehicle>
    <vehicle id="veh11" type="veh_passenger" depart="101.14" departLane="best">
        <route edges="1046100143 1078784918 1078784915 1046109807 549008056 1046109806#0 549008060 549008059 549008062 549008063 288875953#0 42336835#0 549118408 549008065 288875956 549118404 962307428 194296246 1132700068 1149133719 974006864 1148646857 777538770 411763917 42340609 1196694169 194355534 769716780 720901625 248975819 1196696794 1196696795 1196696796 778096182 791651315 -42340628#0"/>
    </vehicle>
    <vehicle id="veh12" type="veh_passenger" depart="110.34" departLane="best">
        <route edges="778096185 1196696796 1196696797 1196696798 1196696799 777538772 777538774 814268085 769716782 1196694173 42340610 1196694167 186938889 186938890 549118393#0 549118396 549118397 1062301256 1148646859 974006868#0 974006868#1 974006868#2 974006867 -42336836 -1132700068 1062682404 962307427 -288875956 -1073046199 288875955#0 288875954#0 -549008063 1078784919 1078784920 1078784922 1046107949 1078784924#0 -549008056 -1046109807"/>
    </vehicle>
    <vehicle id="veh13" type="veh_passenger" depart="119.53" departLane="best" departSpeed="max">
        <route edges="-319023546#1 -319023546#0 -319023554 -549008085 -549008083#0 -549008084 -549008080 -549008081 -549008079 -549008078 -237382756 -549008071 -549008074 -237382742#2 42336835#0 549118408 549008065 288875956 549118404 962307428 194296246 -39122228 777538786 1196694183 777538784 -974646436 777538788 1196694175 777538792 -549008039#1 -319023535#2"/>
    </vehicle>
    <vehicle id="veh14" type="veh_passenger" depart="128.72" departLane="best">
        <route edges="-42340646 -42340642#1 42340641#0 549118422 319023535#0 319023535#1 42340613#0 549008036 549008035 778096185 1196696796 1196696797 1196696798 1196696799 777538772 777538774 814268085 769716782 1196694173 42340610 1196694167 186938889 186938890 549118393#0 549118396 549118397 1062301256 1148646859 974006868#0 974006868#1 974006868#2 1148646858 1148646857 777538770 411763917 42340609"/>
    </vehicle>
    <vehicle id="veh15" type="veh_passenger" depart="137.92" departLane="best">
        <route edges="-549008083#0 -549008084 -549008080 -549008081 -549008079 -549008078 -237382756 -549008071 -549008074 -237382742#2 42336835#0 549118408 549008065"/>
    </vehicle>
    <vehicle id="veh16" type="veh_passenger" depart="147.11" departLane="best">
        <route edges="319023535#1 42340613#0 549008036 549008035 778096185 1196696796 1196696797 1196696798 1196696799 777538772 777538774 814268085"/>
    </vehicle>
    <vehicle id="veh17" type="veh_passenger" depart="156.31" departLane="best">
        <route edges="1078784916 1046100143 1078784918 1078784915 1046109807 549008056 1046109806#0 549008060 549008059 549008062 549008063 288875953#0 237382742#0 549008074 549008071 319023556 549008078 549008079 549008081 549008080 549008084 549008083#0 549008085 319023554 319023546#0 319023546#1"/>
    </vehicle>
    <vehicle id="veh18" type="veh_passenger" depart="165.50" departLane="best">
        <route edges="549118396 549118397 1062301256 1148646859 974006868#0 974006868#1 974006868#2 974006867 -42336836 -1132700068 -39122228 777538786 1196694183 777538784 -974646436 777538788 1196694175 777538792 -549008039#1 -319023535#2 -319023535#0 -549118422 -42340641#1 42340642#0"/>
    </vehicle>
    <vehicle id="veh19" type="veh_passenger" depart="174.70" departLane="best" departSpeed="max">
        <route edges="-1132700068 1062682404 962307427 -288875956 -1073046199 288875955#0 237382742#0 549008074 549008071 319023556"/>
    </vehicle>
    <vehicle id="veh20" type="veh_passenger" depart="183.89" departLane="best">
        <route edges="549008046#0 549008043#0 42340648 319023542#0 42340641#0 549118422 319023535#0 319023535#1 42340613#0"/>
    </vehicle>
    <vehicle id="veh21" type="veh_passenger" depart="193.09" departLane="best">
        <route edges="549008056 1046109806#0 549008060 549008059 549008062 549008063 288875953#0 237382742#0 549008074 549008071 319023556 549008078 549008079 549008081 549008080 549008084 549008083#0"/>
    </vehicle>
    <vehicle id="veh22" type="veh_passenger" depart="202.28" departLane="best">
        <route edges="-319023535#2 -319023535#0 -549118422 -42340641#1 -319023542#1 -549008000 -549008043#2 -437406387#2 -549008066 -549008067 -549008070 288875954#0 -549008063 1078784919 1078784920 1078784922 1046107949 1078784924#0 -549008056"/>
    </vehicle>
    <vehicle id="veh23" type="veh_passenger" depart="211.48" departLane="best" departSpeed="max">
        <route edges="-319023546#1 -319023546#0 -319023554 -549008085 -549008083#0 -549008084 -549008080"/>
    </vehicle>
    <vehicle id="veh24" type="veh_passenger" depart="220.67" departLane="best" departSpeed="max">
        <route edges="42340628#0 -792659379 778096183 1196696798 1196696799 777538772 777538774 814268085 769716782 1196694173 42340610 1196694167 186938889 186938890 549118393#0 549118396 549118397 1062301256 1148646859 974006868#0 974006868#1 974006868#2 974006867 -42336836 -1132700068 1062682404 962307427 -288875956 -1073046199 288875955#0 288875954#0 -549008063 1078784919 1078784920 1078784922 1046107949 1078784924#0 -549008056 -1046109807 549008057 549008055 549008052 549008051 1263276573 1046109808 -249826562 249826562 1078784913 1078784916"/>
    </vehicle>
    <vehicle id="veh25" type="veh_passenger" depart="229.87" departLane="best">
        <route edges="1078784913 1078784916 1046100143 1078784918 1078784915 1046109807 549008056 1046109806#0 549008060 549008059 549008062 549008063 288875953#0 42336835#0 549118408 549008065 288875956 549118404 962307428 194296246 1132700068 1149133719 974006864 1148646857 777538770 411763917 42340609 1196694169 194355534 769716780 720901625 248975819 1196696794 778096184 -549008035 -549008036"/>
    </vehicle>
    <vehicle id="veh26" type="veh_passenger" depart="239.06" departLane="best">
        <route edges="-549008078 -237382756 -549008071 -549008074 -237382742#2 42336835#0 549118408 549008065 288875956 549118404 962307428 194296246 -39122228 777538786 1196694183 777538784 -974646436 777538788 1196694175 777538792 -549008039#1 42340613#0 549008036 549008035 778096185"/>
    </vehicle>
    <vehicle id="veh27" type="veh_passenger" depart="248.25" departLane="best">
        <route edges="-42340642#1 42340641#0 549118422 319023535#0 319023535#1 42340613#0"/>
    </vehicle>
    <vehicle id="veh28" type="veh_passenger" depart="257.45" departLane="best" departSpeed="max">
        <route edges="-42340647 -42340642#1 -319023542#1 -549008000 -549008043#2 -437406387#2 -549008066 -549008067 -549008070 42336835#0 549118408 549008065"/>
    </vehicle>
    <vehicle id="veh29" type="veh_passenger" depart="266.64" departLane="best" departSpeed="max">
        <route edges="-42340646 -42340642#1 -319023542#1 -549008000 -549008043#2 -437406387#2 -549008066 -549008067 -549008070 288875954#0 -549008063 1078784919 1078784920 1078784922"/>
    </vehicle>
    <vehicle id="veh30" type="veh_passenger" depart="275.84" departLane="best">
        <route edges="974006865 331657131 1202362037 -1202362037 -331657131 1236950840 974006868#0 974006868#1 974006868#2 974006867 -42336836 -1132700068 -39122228 777538786 1196694183 777538784 -974646436 777538788 1196694175 777538792 -549008039#1 -319023535#2 -319023535#0 -549118422 -42340641#1 42340642#0 42340647"/>
    </vehicle>
    <vehicle id="veh31" type="veh_passenger" depart="285.03" departLane="best">
        <route edges="-319023554 -549008085 -549008083#0 -549008084 -549008080 -549008081 -549008079 -549008078 -237382756 -549008071 -549008074 -237382742#2 549008070 411763899#0 549008066 438404111 -549008046#2"/>
    </vehicle>
    <vehicle id="veh32" type="veh_passenger" depart="294.23" departLane="best">
        <route edges="549118408 549008065 288875956 549118404 962307428 194296246 -39122228 777538786 1196694183 1196694190 1196694186 777538787 39122228 1062682404 962307427 -288875956 -1073046199 288875955#0 237382742#0 549008074 549008071 319023556 549008078 549008079 549008081 549008080"/>
    </vehicle>
    <vehicle id="veh33" type="veh_passenger" depart="303.42" departLane="best">
        <route edges="549008056 1046109806#0 549008060 549008059 439667057 -1152230290"/>
    </vehicle>
    <vehicle id="veh34" type="veh_passenger" depart="312.62" departLane="best" departSpeed="max">
        <route edges="-792723120 778096186 777538772 777538774 814268085 769716782 1196694173 42340610 1196694167 186938889 186938890 549118393#0 549118396 549118397 1062301256 1148646859 974006868#0 1134433961 -549008083#0 -549008084 -549008080 -549008081 -549008079 -549008078 -237382756 -549008071 -549008074"/>
    </vehicle>
    <vehicle id="veh35" type="veh_passenger" depart="321.81" departLane="best">
        <route edges="-549008043#2 -437406387#2 -549008066 -549008067 -549008070 42336835#0 549118408 549008065 288875956 549118404 962307428 194296246 1132700068 1149133719 974006864 1148646857 777538770 411763917 42340609 1196694169 194355534 769716780 720901625 248975819 1196696794 1196696795 1196696796 1196696797 1196696798 778096187"/>
    </vehicle>
    <vehicle id="veh36" type="veh_passenger" depart="331.01" departLane="best" departSpeed="max">
        <route edges="42373465 1152230292 549008046#0 -437406387#2 -549008066 -549008067 -549008070 42336835#0 549118408 549008065 288875956 549118404 962307428 194296246 1132700068 1149133719 974006864 1148646857 1148646856 1062301256 1148646859 974006868#0 1134433961"/>
    </vehicle>
    <vehicle id="veh37" type="veh_passenger" depart="340.20" departLane="best">
        <route edges="-549008078 -237382756 -549008071 -549008074 -237382742#2 549008070 411763899#0"/>
    </vehicle>
    <vehicle id="veh38" type="veh_passenger" depart="349.40" departLane="best">
        <route edges="-319023554 -549008085 -549008083#0 -549008084 -549008080 -549008081 -549008079 -549008078 -237382756 -549008071"/>
    </vehicle>
    <vehicle id="veh39" type="veh_passenger" depart="358.59" departLane="best">
        <route edges="42336835#0 549118408 549008065 288875956 549118404 962307428 194296246 -39122228 777538786 1196694183 777538784 -974646436 777538788"/>
    </vehicle>
    <vehicle id="veh40" type="veh_passenger" depart="367.78" departLane="best">
        <route edges="1132700068 1149133719 974006864 1148646857 777538770 411763917 42340609 1196694169 194355534 769716780 720901625 248975819 1196696794 778096184 -549008035 -549008036 -249487869 -319023535#2 -319023535#0 -549118422 -42340641#1 -319023542#1 -549008000 -549008043#2"/>
    </vehicle>
    <vehicle id="veh41" type="veh_passenger" depart="376.98" departLane="best">
        <route edges="974006867 -42336836 -1132700068 1062682404 962307427 -288875956"/>
    </vehicle>
    <vehicle id="veh42" type="veh_passenger" depart="386.17" departLane="best" departSpeed="max">
        <route edges="-319023546#1 -319023546#0 -319023554 -549008085 -549008083#0 -549008084 -549008080 -549008081 -549008079 -549008078 -237382756 -549008071 -549008074 -237382742#2"/>
    </vehicle>
    <vehicle id="veh43" type="veh_passenger" depart="395.37" departLane="best" departSpeed="max">
        <route edges="-319023546#1 -319023546#0 -319023554 -549008085 -549008083#0 -549008084 -549008080 -549008081 -549008079 -549008078 -237382756 -549008071 -549008074 -237382742#2 549008070 411763899#0 549008066 438404111 549008043#0 42340648 319023542#0 42340642#0 42340647"/>
    </vehicle>
    <vehicle id="veh44" type="veh_passenger" depart="404.56" departLane="best">
        <route edges="549008079 549008081 549008080 549008084 549008083#0 709217977 974006868#2 1148646858 1148646857 1148646856 1062301256 974006865 331657131 1202362037"/>
    </vehicle>
    <vehicle id="veh45" type="veh_passenger" depart="413.76" departLane="best">
        <route edges="-249487869 549008039#0 777538793 1196694181 777538789 1237762219 777538785 1196694186 777538787 39122228 1062682404 962307427 -288875956 -1073046199 288875955#0 288875954#0 -549008063 1078784919 1078784920 1078784922"/>
    </vehicle>
    <vehicle id="veh46" type="veh_passenger" depart="422.95" departLane="best">
        <route edges="974006867 -42336836 -1132700068 -39122228 777538786 1196694183 777538784 -974646436 777538788 1196694175 777538792 -549008039#1 -319023535#2"/>
    </vehicle>
    <vehicle id="veh47" type="veh_passenger" depart="432.15" departLane="best">
        <route edges="438404111 549008043#0 42340648 319023542#0"/>
    </vehicle>
    <vehicle id="veh48" type="veh_passenger" depart="441.34" departLane="best">
        <route edges="-549008078 -237382756 -549008071 -549008074 -237382742#2 549008070 411763899#0 549008066 438404111 549008043#0 42340648 319023542#0 42340642#0 42340647"/>
    </vehicle>
    <vehicle id="veh49" type="veh_passenger" depart="450.54" departLane="best">
        <route edges="194355534 769716780 720901625 248975819 1196696794 1196696795 1196696796 1196696797 1196696798 778096187 792723120"/>
    </vehicle>
    <vehicle id="veh50" type="veh_passenger" depart="459.73" departLane="best" departSpeed="max">
        <route edges="711814487 1149133719 974006864 1148646857 1148646856 1062301256 1148646859 974006868#0 1134433961 -549008083#0 -549008084 -549008080 -549008081 -549008079 -549008078 -237382756 -549008071"/>
    </vehicle>
    <vehicle id="veh51" type="veh_passenger" depart="468.92" departLane="best">
        <route edges="288875953#0 42336835#0 549118408 549008065 288875956 549118404 962307428 194296246 -39122228 777538786 1196694183 777538784 -974646436 777538788 1196694175 777538792 -549008039#1 -319023535#2 -319023535#0 -549118422 -42340641#1"/>
    </vehicle>
    <vehicle id="veh52" type="veh_passenger" depart="478.12" departLane="best">
        <route edges="777538786 1196694183 777538784 -974646436 777538788 1196694175 777538792 -549008039#1 42340613#0 549008036 549008035 778096185 1196696796 1196696797 1196696798 1196696799 777538772 777538774 814268085 769716782 1196694173 42340610 1196694167 186938889 186938890 549118393#0 549118396 549118397 1062301256 1148646859 974006868#0 974006868#1 974006868#2 1148646858 1148646857 777538770"/>
    </vehicle>
    <vehicle id="veh53" type="veh_passenger" depart="487.31" departLane="best">
        <route edges="-549118422 -42340641#1 42340642#0 42340647"/>
    </vehicle>
    <vehicle id="veh54" type="veh_passenger" depart="496.51" departLane="best" departSpeed="max">
        <route edges="42340627 1030991934 1196694167 1196694168 1196694169 194355534 769716780 720901625 248975819 1196696794 1196696795 1196696796 778096182 791651315 -42340628#0"/>
    </vehicle>
    <vehicle id="veh55" type="veh_passenger" depart="505.70" departLane="best">
        <route edges="549008070 411763899#0 549008066 438404111 549008043#0 42340648 319023542#0"/>
    </vehicle>
    <vehicle id="veh56" type="veh_passenger" depart="514.90" departLane="best">
        <route edges="-549008078 -237382756 -549008071 -549008074 -237382742#2 549008070 411763899#0 549008066 438404111 549008043#0 42340648 319023542#0 42340641#0 549118422 319023535#0 319023535#1"/>
    </vehicle>
    <vehicle id="veh57" type="veh_passenger" depart="524.09" departLane="best">
        <route edges="42373465 1152230292 549008046#0 549008043#0 42340648 319023542#0 42340641#0 549118422 319023535#0 319023535#1 42340613#0 549008036 549008035 778096185"/>
    </vehicle>
    <vehicle id="veh58" type="veh_passenger" depart="533.29" departLane="best" departSpeed="max">
        <route edges="-1132700068 -39122228 777538786 1196694183 777538784 -974646436 777538788 1196694175 777538792 -549008039#1 -319023535#2 -319023535#0 -549118422 -42340641#1 42340642#0 549118415"/>
    </vehicle>
    <vehicle id="veh59" type="veh_passenger" depart="542.48" departLane="best" departSpeed="max">
        <route edges="-792723120 778096186 777538772 777538774 814268085 769716782 1196694173 42340610 1196694167 186938889 186938890 549118393#0 549118396 549118397 1062301256 1148646859 974006868#0 1134433961 -549008083#0 -549008084 -549008080 -549008081 -549008079 -549008078 -237382756"/>
    </vehicle>
    <vehicle id="veh60" type="veh_passenger" depart="551.68" departLane="best" departSpeed="max">
        <route edges="711814487 1149133719 974006864 1148646857 777538770 411763917 42340609 1196694169 194355534 769716780 720901625 248975819 1196696794 1196696795 1196696796 778096182 791651315"/>
    </vehicle>
    <vehicle id="veh61" type="veh_passenger" depart="560.87" departLane="best">
        <route edges="-319023542#1 -549008000 -549008043#2 -437406387#2 -549008066 -549008067 -549008070 288875954#0"/>
    </vehicle>
    <vehicle id="veh62" type="veh_passenger" depart="570.07" departLane="best">
        <route edges="-288875956 -1073046199 288875955#0 237382742#0 549008074 549008071 319023556 549008078"/>
    </vehicle>
    <vehicle id="veh63" type="veh_passenger" depart="579.26" departLane="best">
        <route edges="549008071 319023556 549008078 549008079 549008081 549008080 549008084 549008083#0 709217977 974006868#2 974006867 -42336836"/>
    </vehicle>
    <vehicle id="veh64" type="veh_passenger" depart="588.45" departLane="best" departSpeed="max">
        <route edges="249826562 1078784913 1078784916 1046100143 1078784918 1078784915 1046109807 549008056 1046109806#0 549008060 549008059 549008062 549008063 288875953#0 237382742#0 549008074 549008071 319023556 549008078 549008079 549008081 549008080 549008084 549008083#0 549008085 319023554 319023546#0 319023546#1"/>
    </vehicle>
    <vehicle id="veh65" type="veh_passenger" depart="597.65" departLane="best">
        <route edges="-549008078 -237382756 -549008071 -549008074 -237382742#2 42336835#0 549118408 549008065 288875956 549118404 962307428 194296246 1132700068 1149133719 974006864 1148646857 777538770"/>
    </vehicle>
    <vehicle id="veh66" type="veh_passenger" depart="606.84" departLane="best">
        <route edges="-549008085 -549008083#0 -549008084 -549008080 -549008081 -549008079 -549008078 -237382756 -549008071 -549008074 -237382742#2 42336835#0 549118408 549008065 288875956 549118404 962307428 194296246 -39122228 777538786 1196694183 777538784 -974646436 777538788 1196694175 777538792 -549008039#1"/>
    </vehicle>
    <vehicle id="veh67" type="veh_passenger" depart="616.04" departLane="best">
        <route edges="-319023535#2 -319023535#0 -549118422 -42340641#1 -319023542#1 -549008000 -549008043#2 -437406387#2 -549008066 -549008067 -549008070 42336835#0 549118408 549008065"/>
    </vehicle>
    <vehicle id="veh68" type="veh_passenger" depart="625.23" departLane="best">
        <route edges="-549008035 -549008036 -249487869 549008039#0 777538793 1196694181 777538789 1237762219"/>
    </vehicle>
    <vehicle id="veh69" type="veh_passenger" depart="634.43" departLane="best">
        <route edges="974006865 331657131 1202362037 -1202362037 -331657131 1236950840 974006868#0 974006868#1 974006868#2 974006867 -42336836 -1132700068 1062682404 962307427 -288875956 -1073046199 288875955#0 549008070 411763899#0 549008066 438404111 -549008046#2 -549008048 -1152230290"/>
    </vehicle>
    <vehicle id="veh70" type="veh_passenger" depart="643.62" departLane="best">
        <route edges="1263276573 1046109808 -249826562 249826562 1078784913 1078784916 1046100143 1078784918 1078784915 1046109807 549008056 1046109806#0 549008060 549008059 549008062 549008063 288875953#0 549008070 411763899#0 549008066 438404111 549008043#0 42340648 319023542#0 42340641#0 549118422 319023535#0"/>
    </vehicle>
    <vehicle id="veh71" type="veh_passenger" depart="652.82" departLane="best">
        <route edges="-331657131 1236950840 974006868#0 974006868#1 974006868#2 974006867 -42336836 -1132700068 1062682404 962307427 -288875956 -1073046199 288875955#0 549008070 411763899#0 549008066 438404111 -549008046#2"/>
    </vehicle>
    <vehicle id="veh72" type="veh_passenger" depart="662.01" departLane="best">
        <route edges="1046100143 1078784918 1078784915 1046109807 549008056 1046109806#0 549008060 549008059 549008062 549008063 288875953#0 549008070 411763899#0"/>
    </vehicle>
    <vehicle id="veh73" type="veh_passenger" depart="671.21" departLane="best">
        <route edges="549008056 1046109806#0 549008060 549008059 549008062 549008063 288875953#0 549008070 411763899#0 549008066 438404111 549008043#0"/>
    </vehicle>
    <vehicle id="veh74" type="veh_passenger" depart="680.40" departLane="best">
        <route edges="-319023527 -42340628#1 -792659379 778096183 1196696798 1196696799 777538772 1196696793 1196696794 778096184 -549008035 -549008036 -249487869 -319023535#2 -319023535#0 -549118422 -42340641#1 42340642#0 42340647"/>
    </vehicle>
    <vehicle id="veh75" type="veh_passenger" depart="689.60" departLane="best">
        <route edges="549008056 1046109806#0 549008060 549008059 549008062 549008063 288875953#0 42336835#0 549118408 549008065 288875956 549118404 962307428 194296246 -39122228 777538786 1196694183 777538784 -974646436 777538788 1196694175 777538792"/>
    </vehicle>
    <vehicle id="veh76" type="veh_passenger" depart="698.79" departLane="best">
        <route edges="709217977 974006868#2 974006867 -42336836 -1132700068 1062682404 962307427 -288875956 -1073046199 288875955#0 288875954#0 -549008063 1078784919 1078784920 1078784922 1046107949 1078784924#0 -549008056 -1046109807 549008057 549008055 549008052 549008051 1263276573 1046109808 -249826562"/>
    </vehicle>
    <vehicle id="veh77" type="veh_passenger" depart="707.98" departLane="best">
        <route edges="-549008066 -549008067 -549008070 42336835#0 549118408 549008065 288875956 549118404 962307428 194296246 -39122228 777538786 1196694183 777538784 -974646436 777538788 1196694175 777538792 -549008039#1 42340613#0 549008036"/>
    </vehicle>
    <vehicle id="veh78" type="veh_passenger" depart="717.18" departLane="best">
        <route edges="-549008043#2 -437406387#2 -549008066 -549008067 -549008070 42336835#0 549118408 549008065 288875956 549118404 962307428 194296246 1132700068 1149133719 974006864 1148646857 777538770 411763917 42340609 1196694169 1196694172 1196694173 1030991935 -42340627"/>
    </vehicle>
    <vehicle id="veh79" type="veh_passenger" depart="726.37" departLane="best">
        <route edges="778096182 791651315 -792659379 778096183 1196696798 1196696799 777538772 777538774 814268085 769716782 1196694173 42340610 1196694167 186938889 186938890 549118393#0 549118396 549118397 1062301256 1148646859 974006868#0 1134433961 549008085 319023554"/>
    </vehicle>
    <vehicle id="veh80" type="veh_passenger" depart="735.57" departLane="best" departSpeed="max">
        <route edges="249826562 1078784913 1078784916 1046100143 1078784918 1078784915 1046109807 549008056 1046109806#0 549008060 549008059 549008062 549008063 288875953#0 237382742#0 549008074 549008071 319023556 549008078 549008079 549008081"/>
    </vehicle>
    <vehicle id="veh81" type="veh_passenger" depart="744.76" departLane="best">
        <route edges="-549008083#0 -549008084 -549008080 -549008081 -549008079 -549008078 -237382756 -549008071 -549008074 -237382742#2 549008070 411763899#0 549008066 438404111 549008043#0 42340648 319023542#0 42340642#0 549118415"/>
    </vehicle>
    <vehicle id="veh82" type="veh_passenger" depart="753.96" departLane="best" departSpeed="max">
        <route edges="-319023546#1 -319023546#0"/>
    </vehicle>
    <vehicle id="veh83" type="veh_passenger" depart="763.15" departLane="best">
        <route edges="-549008085 -549008083#0 -549008084 -549008080 -549008081 -549008079 -549008078 -237382756 -549008071 -549008074 -237382742#2 42336835#0 549118408 549008065 288875956 549118404 962307428 194296246 -39122228 777538786 1196694183 777538784 -974646436 777538788 1196694175 777538792 -549008039#1 237264805#1"/>
    </vehicle>
    <vehicle id="veh84" type="veh_passenger" depart="772.35" departLane="best">
        <route edges="1078784915 1046109807 549008056 1046109806#0 549008060 549008059 549008062 549008063 288875953#0 549008070 411763899#0 549008066 438404111 549008043#0 42340648 319023542#0 42340641#0 549118422 319023535#0 319023535#1 549008039#0"/>
    </vehicle>
    <vehicle id="veh85" type="veh_passenger" depart="781.54" departLane="best">
        <route edges="974006864 1148646857 777538770 411763917 42340609 1196694169 194355534 769716780 720901625 248975819 1196696794 778096184 -549008035 -549008036 -249487869 -319023535#2"/>
    </vehicle>
    <vehicle id="veh86" type="veh_passenger" depart="790.74" departLane="best">
        <route edges="-1132700068 1062682404 962307427 -288875956 -1073046199 288875955#0 288875954#0 -549008063 1078784919 1078784920 1078784922 1046107949 1078784924#0 -549008056 -1046109807"/>
    </vehicle>
    <vehicle id="veh87" type="veh_passenger" depart="799.93" departLane="best" departSpeed="max">
        <route edges="-1132700068 1062682404 962307427 -288875956 -1073046199 288875955#0 549008070 411763899#0"/>