<?xml version="1.0" encoding="UTF-8"?>

<!-- generated on 2024-04-14 22:26:05.743245 by randomTrips.py v1_19_0+0000-baa66a0f364
<configuration>
    <net-file value="wielun.net.xml"/>
    <output-trip-file value="wielun.bus.trips.xml"/>
    <route-file value="wielun.bus.rou.xml"/>
    <prefix value="bus"/>
    <trip-attributes value="departLane=&quot;best&quot;"/>
    <fringe-start-attributes value="departSpeed=&quot;max&quot;"/>
    <vehicle-class value="bus"/>
    <fringe-factor value="5"/>
    <vclass value="bus"/>
    <via-edge-types value="highway.motorway,highway.motorway_link,highway.trunk_link,highway.primary_link,highway.secondary_link,highway.tertiary_link"/>
    <min-distance value="600.0"/>
    <min-distance.fringe value="10.0"/>
    <remove-loops value="True"/>
    <validate value="True"/>
    <insertion-density value="4.0"/>
</configuration>
-->

<!-- generated on 2024-04-14 22:26:05 by Eclipse SUMO duarouter Version 1.19.0
<configuration xmlns:xsi="http://www.w3.org/2001/XMLSchema-instance" xsi:noNamespaceSchemaLocation="http://sumo.dlr.de/xsd/duarouterConfiguration.xsd">

    <input>
        <net-file value="wielun.net.xml"/>
        <route-files value="wielun.bus.trips.xml"/>
    </input>

    <output>
        <output-file value="wielun.bus.trips.xml.tmp"/>
        <alternatives-output value="NUL"/>
        <write-trips value="true"/>
    </output>

    <processing>
        <remove-loops value="true"/>
    </processing>

    <time>
        <begin value="0.0"/>
        <end value="3600.0"/>
    </time>

    <report>
        <no-warnings value="true"/>
        <ignore-errors value="true"/>
        <no-step-log value="true"/>
    </report>

</configuration>
-->

<routes xmlns:xsi="http://www.w3.org/2001/XMLSchema-instance" xsi:noNamespaceSchemaLocation="http://sumo.dlr.de/xsd/routes_file.xsd">
    <vType id="bus_bus" vClass="bus"/>
    <trip id="bus0" type="bus_bus" depart="0.00" departLane="best" departSpeed="max" from="42340628#0" to="-1152230290"/>
    <trip id="bus1" type="bus_bus" depart="27.58" departLane="best" from="-549008079" to="-549008039#1"/>
    <trip id="bus2" type="bus_bus" depart="55.17" departLane="best" from="549008056" to="549008039#0"/>
    <trip id="bus3" type="bus_bus" depart="82.75" departLane="best" from="777538770" to="-249826562"/>
    <trip id="bus4" type="bus_bus" depart="110.34" departLane="best" from="1134433961" to="-1152230290"/>
    <trip id="bus5" type="bus_bus" depart="137.92" departLane="best" from="-549008039#1" to="288875954#0"/>
    <trip id="bus6" type="bus_bus" depart="165.50" departLane="best" departSpeed="max" from="-1202362037" to="42340642#0"/>
    <trip id="bus7" type="bus_bus" depart="193.09" departLane="best" from="42340641#0" to="319023546#1"/>
    <trip id="bus8" type="bus_bus" depart="220.67" departLane="best" from="-549008083#0" to="549008055"/>
    <trip id="bus9" type="bus_bus" depart="248.25" departLane="best" from="778096186" to="1046107949"/>
    <trip id="bus10" type="bus_bus" depart="275.84" departLane="best" departSpeed="max" from="-319023546#1" to="-319023527"/>
    <trip id="bus11" type="bus_bus" depart="303.42" departLane="best" from="549118422" to="42340609"/>
    <trip id="bus12" type="bus_bus" depart="331.01" departLane="best" from="1078784913" to="319023546#1"/>
    <trip id="bus13" type="bus_bus" depart="358.59" departLane="best" from="549118397" to="-42340641#1"/>
    <trip id="bus14" type="bus_bus" depart="386.17" departLane="best" from="549008046#0" to="549008081"/>
    <trip id="bus15" type="bus_bus" depart="413.76" departLane="best" from="-319023535#2" to="-549008046#2"/>
    <trip id="bus16" type="bus_bus" depart="441.34" departLane="best" departSpeed="max" from="-319023546#1" to="-549008078"/>
    <trip id="bus17" type="bus_bus" depart="468.92" departLane="best" departSpeed="max" from="42340628#0" to="1078784913"/>
    <trip id="bus18" type="bus_bus" depart="496.51" departLane="best" from="1046109808" to="42340648"/>
    <trip id="bus19" type="bus_bus" depart="524.09" departLane="best" from="-549008078" to="778096187"/>
    <trip id="bus20" type="bus_bus" depart="551.68" departLane="best" departSpeed="max" from="-42340646" to="-549008063"/>
    <trip id="bus21" type="bus_bus" depart="579.26" departLane="best" departSpeed="max" from="-42340646" to="1078784918"/>
    <trip id="bus22" type="bus_bus" depart="606.84" departLane="best" from="974006864" to="42340647"/>
    <trip id="bus23" type="bus_bus" depart="634.43" departLane="best" from="-319023554" to="-549008046#2"/>
    <trip id="bus24" type="bus_bus" depart="662.01" departLane="best" from="-549008048" to="-1152230290"/>
    <trip id="bus25" type="bus_bus" depart="689.60" departLane="best" departSpeed="max" from="-792723120" to="-549008071"/>
    <trip id="bus26" type="bus_bus" depart="717.18" departLane="best" from="-42340642#1" to="1078784924#0"/>
    <trip id="bus27" type="bus_bus" depart="744.76" departLane="best" from="777538787" to="1263276573"/>
    <trip id="bus28" type="bus_bus" depart="772.35" departLane="best" from="42336835#0" to="777538788"/>
    <trip id="bus29" type="bus_bus" depart="799.93" departLane="best" from="549008062" to="-549008036"/>
    <trip id="bus30" type="bus_bus" depart="827.51" departLane="best" from="974006867" to="288875955#0"/>
    <trip id="bus31" type="bus_bus" depart="855.10" departLane="best" departSpeed="max" from="-319023546#1" to="-237264805#1"/>
    <trip id="bus32" type="bus_bus" depart="882.68" departLane="best" departSpeed="max" from="-319023546#1" to="42340647"/>
    <trip id="bus33" type="bus_bus" depart="910.27" departLane="best" from="549008079" to="1202362037"/>
    <trip id="bus34" type="bus_bus" depart="937.85" departLane="best" from="-288875956" to="1078784919"/>
    <trip id="bus35" type="bus_bus" depart="965.43" departLane="best" from="974006867" to="-319023535#2"/>
    <trip id="bus36" type="bus_bus" depart="993.02" departLane="best" from="-1132700068" to="549008060"/>
    <trip id="bus37" type="bus_bus" depart="1020.60" departLane="best" departSpeed="max" from="42373465" to="319023546#0"/>
    <trip id="bus38" type="bus_bus" depart="1048.19" departLane="best" from="-549008078" to="42340647"/>
    <trip id="bus39" type="bus_bus" depart="1075.77" departLane="best" departSpeed="max" from="-319023546#1" to="1202362037"/>
    <trip id="bus40" type="bus_bus" depart="1103.35" departLane="best" departSpeed="max" from="-1132700068" to="549008070"/>
    <trip id="bus41" type="bus_bus" depart="1130.94" departLane="best" departSpeed="max" from="249826562" to="-42340628#0"/>
    <trip id="bus42" type="bus_bus" depart="1158.52" departLane="best" from="777538786" to="777538774"/>
    <trip id="bus43" type="bus_bus" depart="1186.10" departLane="best" from="-549008085" to="42340647"/>
    <trip id="bus44" type="bus_bus" depart="1213.69" departLane="best" from="549008065" to="319023546#0"/>
    <trip id="bus45" type="bus_bus" depart="1241.27" departLane="best" from="-549008071" to="319023535#1"/>
    <trip id="bus46" type="bus_bus" depart="1268.86" departLane="best" from="1046109807" to="1030991934"/>
    <trip id="bus47" type="bus_bus" depart="1296.44" departLane="best" departSpeed="max" from="-1202362037" to="778096185"/>
    <trip id="bus48" type="bus_bus" depart="1324.02" departLane="best" from="720901625" to="549118415"/>
    <trip id="bus49" type="bus_bus" depart="1351.61" departLane="best" from="-792659379" to="-237382756"/>
    <trip id="bus50" type="bus_bus" depart="1379.19" departLane="best" from="-319023527" to="549008078"/>
    <trip id="bus51" type="bus_bus" depart="1406.77" departLane="best" from="549008065" to="-39122228"/>
    <trip id="bus52" type="bus_bus" depart="1434.36" departLane="best" from="237264805#1" to="319023546#1"/>
    <trip id="bus53" type="bus_bus" depart="1461.94" departLane="best" from="-549008074" to="777538774"/>
    <trip id="bus54" type="bus_bus" depart="1489.53" departLane="best" from="1134433961" to="-549008035"/>
    <trip id="bus55" type="bus_bus" depart="1517.11" departLane="best" from="319023535#1" to="-549008063"/>
    <trip id="bus56" type="bus_bus" depart="1544.69" departLane="best" from="974006865" to="42340648"/>
    <trip id="bus57" type="bus_bus" depart="1572.28" departLane="best" from="1236950840" to="319023527"/>
    <trip id="bus58" type="bus_bus" depart="1599.86" departLane="best" from="-331657131" to="-549008043#2"/>
    <trip id="bus59" type="bus_bus" depart="1627.45" departLane="best" from="1237762219" to="411763899#0"/>
    <trip id="bus60" type="bus_bus" depart="1655.03" departLane="best" from="1152230292" to="549008039#0"/>
    <trip id="bus61" type="bus_bus" depart="1682.61" departLane="best" from="1152230292" to="777538793"/>
    <trip id="bus62" type="bus_bus" depart="1710.20" departLane="best" departSpeed="max" from="-1132700068" to="-249826562"/>
    <trip id="bus63" type="bus_bus" depart="1737.78" departLane="best" from="549008056" to="549008036"/>
    <trip id="bus64" type="bus_bus" depart="1765.36" departLane="best" from="-549008036" to="-42336836"/>
    <trip id="bus65" type="bus_bus" depart="1792.95" departLane="best" from="777538793" to="319023556"/>
    <trip id="bus66" type="bus_bus" depart="1820.53" departLane="best" from="237264805#1" to="549008084"/>
    <trip id="bus67" type="bus_bus" depart="1848.12" departLane="best" from="-549008083#0" to="-42340641#1"/>
    <trip id="bus68" type="bus_bus" depart="1875.70" departLane="best" departSpeed="max" from="-319023546#1" to="1202362037"/>
    <trip id="bus69" type="bus_bus" depart="1903.28" departLane="best" from="549008055" to="549008039#0"/>
    <trip id="bus70" type="bus_bus" depart="1930.87" departLane="best" from="962307428" to="-319023535#0"/>
    <trip id="bus71" type="bus_bus" depart="1958.45" departLane="best" departSpeed="max" from="-1132700068" to="-549008063"/>
    <trip id="bus72" type="bus_bus" depart="1986.04" departLane="best" departSpeed="max" from="-42340647" to="1223056399"/>
    <trip id="bus73" type="bus_bus" depart="2013.62" departLane="best" from="1134433961" to="-549008079"/>
    <trip id="bus74" type="bus_bus" depart="2041.20" departLane="best" from="-549008067" to="778096184"/>
    <trip id="bus75" type="bus_bus" depart="2068.79" departLane="best" from="-319023546#0" to="-237382742#2"/>
    <trip id="bus76" type="bus_bus" depart="2096.37" departLane="best" from="974006867" to="549118415"/>
    <trip id="bus77" type="bus_bus" depart="2123.95" departLane="best" from="709217977" to="-42340628#0"/>
    <trip id="bus78" type="bus_bus" depart="2151.54" departLane="best" from="1078784920" to="-249487869"/>
    <trip id="bus79" type="bus_bus" depart="2179.12" departLane="best" from="1078784913" to="962307428"/>
    <trip id="bus80" type="bus_bus" depart="2206.71" departLane="best" from="186938889" to="1202362037"/>
    <trip id="bus81" type="bus_bus" depart="2234.29" departLane="best" from="778096186" to="974006867"/>
    <trip id="bus82" type="bus_bus" depart="2261.87" departLane="best" departSpeed="max" from="-42340646" to="549008083#0"/>
    <trip id="bus83" type="bus_bus" depart="2289.46" departLane="best" from="-792659379" to="331657131"/>
    <trip id="bus84" type="bus_bus" depart="2317.04" departLane="best" from="319023535#1" to="549008071"/>
    <trip id="bus85" type="bus_bus" depart="2344.62" departLane="best" from="-249487869" to="39122228"/>
    <trip id="bus86" type="bus_bus" depart="2372.21" departLane="best" departSpeed="max" from="249826562" to="720901625"/>
    <trip id="bus87" type="bus_bus" depart="2399.79" departLane="best" departSpeed="max" from="-42340646" to="792723120"/>
    <trip id="bus88" type="bus_bus" depart="2427.38" departLane="best" from="769716782" to="-549008063"/>
    <trip id="bus89" type="bus_bus" depart="2454.96" departLane="best" from="288875955#0" to="778096186"/>
    <trip id="bus90" type="bus_bus" depart="2482.54" departLane="best" from="-549008000" to="1078784922"/>
    <trip id="bus91" type="bus_bus" depart="2510.13" departLane="best" departSpeed="max" from="42373465" to="549008084"/>
    <trip id="bus92" type="bus_bus" depart="2537.71" departLane="best" departSpeed="max" from="-792723120" to="549008074"/>
    <trip id="bus93" type="bus_bus" depart="2565.30" departLane="best" from="-549008074" to="778096186"/>
    <trip id="bus94" type="bus_bus" depart="2592.88" departLane="best" from="1046109808" to="-42340627"/>
    <trip id="bus95" type="bus_bus" depart="2620.46" departLane="best" from="962307427" to="-549008056"/>
    <trip id="bus96" type="bus_bus" depart="2648.05" departLane="best" departSpeed="max" from="42340627" to="974006864"/>
    <trip id="bus97" type="bus_bus" depart="2675.63" departLane="best" from="-42340642#1" to="-1073046199"/>
    <trip id="bus98" type="bus_bus" depart="2703.21" departLane="best" departSpeed="max" from="42373465" to="778096187"/>
    <trip id="bus99" type="bus_bus" depart="2730.80" departLane="best" from="-42340628#1" to="-319023546#0"/>
    <trip id="bus100" type="bus_bus" depart="2758.38" departLane="best" from="-549008079" to="42340609"/>
    <trip id="bus101" type="bus_bus" depart="2785.97" departLane="best" departSpeed="max" from="42340628#0" to="-549008071"/>
    <trip id="bus102" type="bus_bus" depart="2813.55" departLane="best" departSpeed="max" from="249826562" to="777538792"/>
    <trip id="bus103" type="bus_bus" depart="2841.13" departLane="best" from="549118422" to="-288875956"/>
    <trip id="bus104" type="bus_bus" depart="2868.72" departLane="best" from="1134433961" to="-549008078"/>
    <trip id="bus105" type="bus_bus" depart="2896.30" departLane="best" departSpeed="max" from="42340628#0" to="-549008070"/>
    <trip id="bus106" type="bus_bus" depart="2923.89" departLane="best" from="1078784915" to="319023546#1"/>
    <trip id="bus107" type="bus_bus" depart="2951.47" departLane="best" from="-42336836" to="-1073046199"/>
    <trip id="bus108" type="bus_bus" depart="2979.05" departLane="best" from="777538784" to="319023546#1"/>
    <trip id="bus109" type="bus_bus" depart="3006.64" departLane="best" departSpeed="max" from="-42340646" to="-39122228"/>
    <trip id="bus110" type="bus_bus" depart="3034.22" departLane="best" from="-792659379" to="777538789"/>
    <trip id="bus111" type="bus_bus" depart="3061.80" departLane="best" from="549008080" to="769716782"/>
    <trip id="bus112" type="bus_bus" depart="3089.39" departLane="best" from="-549008067" to="-319023535#2"/>
    <trip id="bus113" type="bus_bus" depart="3116.97" departLane="best" from="-549008071" to="777538786"/>
    <trip id="bus114" type="bus_bus" depart="3144.56" departLane="best" from="549008059" to="42340642#0"/>
    <trip id="bus115" type="bus_bus" depart="3172.14" departLane="best" departSpeed="max" from="-42340646" to="778096185"/>
    <trip id="bus116" type="bus_bus" depart="3199.72" departLane="best" from="-549008084" to="777538785"/>
    <trip id="bus117" type="bus_bus" depart="3227.31" departLane="best" departSpeed="max" from="-1202362037" to="549008065"/>
    <trip id="bus118" type="bus_bus" depart="3254.89" departLane="best" from="549008081" to="777538770"/>
    <trip id="bus119" type="bus_bus" depart="3282.47" departLane="best" from="-549008078" to="319023542#0"/>
    <trip id="bus120" type="bus_bus" depart="3310.06" departLane="best" from="549008043#0" to="549118415"/>
    <trip id="bus121" type="bus_bus" depart="3337.64" departLane="best" from="186938890" to="1223056399"/>
    <trip id="bus122" type="bus_bus" depart="3365.23" departLane="best" from="-549008080" to="549008043#0"/>
    <trip id="bus123" type="bus_bus" depart="3392.81" departLane="best" departSpeed="max" from="-1202362037" to="-42340641#1"/>
    <trip id="bus124" type="bus_bus" depart="3420.39" departLane="best" departSpeed="max" from="-792723120" to="777538770"/>
    <trip id="bus125" type="bus_bus" depart="3447.98" departLane="best" from="-792659379" to="-549008079"/>
    <trip id="bus126" type="bus_bus" depart="3475.56" departLane="best" departSpeed="max" from="42340628#0" to="1078784924#0"/>
    <trip id="bus127" type="bus_bus" depart="3503.15" departLane="best" from="962307428" to="319023542#0"/>
    <trip id="bus128" type="bus_bus" depart="3530.73" departLane="best" from="778096182" to="-319023546#0"/>
    <trip id="bus129" type="bus_bus" depart="3558.31" departLane="best" from="778096187" to="-549008071"/>
    <trip id="bus130" type="bus_bus" depart="3585.90" departLane="best" departSpeed="max" from="-319023546#1" to="1202362037"/>
</routes>
