<?xml version="1.0" encoding="UTF-8"?>

<!-- generated on 2024-06-03 07:51:17 by Eclipse SUMO netedit Version 1.19.0
<configuration xmlns:xsi="http://www.w3.org/2001/XMLSchema-instance" xsi:noNamespaceSchemaLocation="http://sumo.dlr.de/xsd/neteditConfiguration.xsd">

    <input>
        <sumo-net-file value="D:\!! AA\magister\networks\wielun\wielun.net.xml"/>
    </input>

    <output>
        <output-file value="D:\!! AA\magister\networks\wielun\wielun.net.xml"/>
        <output.street-names value="true"/>
    </output>

    <processing>
        <geometry.min-radius.fix.railways value="false"/>
        <geometry.max-grade.fix value="false"/>
        <offset.disable-normalization value="true"/>
        <lefthand value="0"/>
    </processing>

    <junctions>
        <no-turnarounds value="true"/>
        <junctions.corner-detail value="5"/>
        <junctions.limit-turn-speed value="5.50"/>
        <rectangular-lane-cut value="0"/>
    </junctions>

    <pedestrian>
        <walkingareas value="0"/>
    </pedestrian>

</configuration>
-->

<net version="1.16" junctionCornerDetail="5" limitTurnSpeed="5.50" xmlns:xsi="http://www.w3.org/2001/XMLSchema-instance" xsi:noNamespaceSchemaLocation="http://sumo.dlr.de/xsd/net_file.xsd">

    <location netOffset="-328262.23,-5676152.69" convBoundary="0.00,0.00,3201.91,2785.84" origBoundary="18.540844,51.211233,18.586670,51.236370" projParameter="+proj=utm +zone=34 +ellps=WGS84 +datum=WGS84 +units=m +no_defs"/>

    <type id="highway.primary" priority="12" numLanes="2" speed="27.78" disallow="tram rail_urban rail rail_electric rail_fast ship" oneway="0"/>
    <type id="highway.secondary" priority="11" numLanes="1" speed="27.78" disallow="tram rail_urban rail rail_electric rail_fast ship" oneway="0"/>
    <type id="highway.tertiary" priority="10" numLanes="1" speed="22.22" disallow="tram rail_urban rail rail_electric rail_fast ship" oneway="0"/>
    <type id="highway.unclassified" priority="4" numLanes="1" speed="13.89" disallow="tram rail_urban rail rail_electric rail_fast ship" oneway="0"/>

    <edge id=":11041822737_0" function="internal">
        <lane id=":11041822737_0_0" index="0" disallow="tram rail_urban rail rail_electric rail_fast ship" speed="12.84" length="7.19" shape="2344.62,1110.72 2345.23,1112.77 2345.67,1114.22 2346.38,1115.48 2347.82,1116.99"/>
    </edge>
    <edge id=":11041822737_1" function="internal">
        <lane id=":11041822737_1_0" index="0" disallow="tram rail_urban rail rail_electric rail_fast ship" speed="8.99" length="7.43" shape="2341.25,1113.89 2342.76,1114.02 2344.36,1114.58 2346.04,1115.57 2347.82,1116.99"/>
    </edge>
    <edge id=":11041822769_0" function="internal">
        <lane id=":11041822769_0_0" index="0" disallow="tram rail_urban rail rail_electric rail_fast ship" speed="7.99" length="6.39" shape="2333.95,1116.81 2334.82,1115.83 2335.44,1114.53 2335.84,1112.90 2336.00,1110.94"/>
    </edge>
    <edge id=":11041822769_1" function="internal">
        <lane id=":11041822769_1_0" index="0" disallow="tram rail_urban rail rail_electric rail_fast ship" speed="10.27" length="6.82" shape="2333.95,1116.81 2335.49,1115.50 2336.66,1114.68 2337.96,1114.21 2339.93,1113.98"/>
    </edge>
    <edge id=":11305650495_0" function="internal">
        <lane id=":11305650495_0_0" index="0" disallow="tram rail_urban rail rail_electric rail_fast ship" speed="9.73" length="7.15" shape="2663.31,1388.46 2661.41,1389.35 2660.20,1390.19 2659.29,1391.36 2658.30,1393.21"/>
    </edge>
    <edge id=":11305650495_1" function="internal">
        <lane id=":11305650495_1_0" index="0" disallow="tram rail_urban rail rail_electric rail_fast ship" speed="11.43" length="7.68" shape="2663.31,1388.46 2661.22,1389.33 2659.69,1389.74 2658.12,1389.74 2655.89,1389.38"/>
    </edge>
    <edge id=":11345134152_0" function="internal">
        <lane id=":11345134152_0_0" index="0" disallow="tram rail_urban rail rail_electric rail_fast ship" speed="13.89" length="0.29" shape="2279.43,715.57 2279.15,715.63"/>
    </edge>
    <edge id=":11345134152_1" function="internal">
        <lane id=":11345134152_1_0" index="0" disallow="tram rail_urban rail rail_electric rail_fast ship" speed="13.89" length="0.30" shape="2278.46,712.51 2278.76,712.45"/>
    </edge>
    <edge id=":11665587462_0" function="internal">
        <lane id=":11665587462_0_0" index="0" disallow="tram rail_urban rail rail_electric rail_fast ship" speed="13.89" length="7.72" shape="2650.97,1388.17 2648.92,1387.18 2647.57,1386.37 2646.34,1385.39 2644.61,1383.89"/>
    </edge>
    <edge id=":11665587462_1" function="internal">
        <lane id=":11665587462_1_0" index="0" disallow="tram rail_urban rail rail_electric rail_fast ship" speed="8.12" length="7.08" shape="2646.48,1390.51 2646.43,1388.27 2646.10,1386.42 2645.49,1384.96 2644.61,1383.89"/>
    </edge>
    <edge id=":11737198861_0" function="internal">
        <lane id=":11737198861_0_0" index="0" disallow="tram rail_urban rail rail_electric rail_fast ship" speed="13.89" length="0.29" shape="716.52,1945.51 716.78,1945.38"/>
    </edge>
    <edge id=":11737198862_0" function="internal">
        <lane id=":11737198862_0_0" index="0" disallow="tram rail_urban rail rail_electric rail_fast ship" speed="13.89" length="0.29" shape="720.39,1951.08 720.13,1951.20"/>
    </edge>
    <edge id=":11737198864_0" function="internal">
        <lane id=":11737198864_0_0" index="0" disallow="tram rail_urban rail rail_electric rail_fast ship" speed="13.89" length="0.30" shape="746.48,1938.64 746.20,1938.76"/>
    </edge>
    <edge id=":1340062940_0" function="internal">
        <lane id=":1340062940_0_0" index="0" disallow="tram rail_urban rail rail_electric rail_fast ship" speed="3.65" length="4.67" shape="1434.65,2786.04 1433.70,2787.13 1432.86,2787.43 1432.12,2786.93 1431.47,2785.64"/>
    </edge>
    <edge id=":1540260297_0" function="internal">
        <lane id=":1540260297_0_0" index="0" disallow="tram rail_urban rail rail_electric rail_fast ship" speed="22.22" length="8.43" shape="1662.03,1550.97 1659.51,1551.21 1657.85,1552.13 1656.19,1553.04 1653.67,1553.23"/>
        <lane id=":1540260297_0_1" index="1" disallow="tram rail_urban rail rail_electric rail_fast ship" speed="22.22" length="8.43" shape="1662.03,1550.97 1654.07,1550.05"/>
    </edge>
    <edge id=":1540260297_2" function="internal">
        <lane id=":1540260297_2_0" index="0" disallow="tram rail_urban rail rail_electric rail_fast ship" speed="22.22" length="8.73" shape="1654.87,1543.70 1657.23,1544.50 1658.61,1545.78 1660.00,1547.03 1662.36,1547.78"/>
    </edge>
    <edge id=":1540298644_0" function="internal">
        <lane id=":1540298644_0_0" index="0" disallow="tram rail_urban rail rail_electric rail_fast ship" speed="3.65" length="4.67" shape="91.69,2271.77 90.28,2272.07 89.43,2271.79 89.14,2270.94 89.41,2269.53"/>
    </edge>
    <edge id=":1621541942_0" function="internal">
        <lane id=":1621541942_0_0" index="0" disallow="tram rail_urban rail rail_electric rail_fast ship" speed="13.89" length="0.17" shape="2598.79,1356.62 2598.63,1356.56"/>
    </edge>
    <edge id=":1621541942_1" function="internal">
        <lane id=":1621541942_1_0" index="0" disallow="tram rail_urban rail rail_electric rail_fast ship" speed="13.89" length="1.61" shape="2599.55,1353.50 2600.64,1352.32"/>
    </edge>
    <edge id=":1796131357_0" function="internal">
        <lane id=":1796131357_0_0" index="0" disallow="tram rail_urban rail rail_electric rail_fast ship" speed="22.22" length="8.41" shape="1626.22,1549.52 1623.79,1549.66 1622.17,1550.51 1620.55,1551.39 1618.10,1551.61"/>
        <lane id=":1796131357_0_1" index="1" disallow="tram rail_urban rail rail_electric rail_fast ship" speed="22.22" length="8.41" shape="1626.68,1546.35 1624.21,1546.48 1622.57,1547.33 1620.92,1548.21 1618.44,1548.43"/>
        <lane id=":1796131357_0_2" index="2" disallow="tram rail_urban rail rail_electric rail_fast ship" speed="22.22" length="8.41" shape="1626.68,1546.35 1618.78,1545.25"/>
    </edge>
    <edge id=":1796131357_3" function="internal">
        <lane id=":1796131357_3_0" index="0" disallow="tram rail_urban rail rail_electric rail_fast ship" speed="22.22" length="8.36" shape="1619.26,1540.76 1621.74,1540.70 1623.44,1540.29 1625.13,1539.93 1627.60,1540.02"/>
        <lane id=":1796131357_3_1" index="1" disallow="tram rail_urban rail rail_electric rail_fast ship" speed="22.22" length="8.36" shape="1619.26,1540.76 1621.65,1541.19 1623.21,1541.87 1624.76,1542.60 1627.14,1543.19"/>
    </edge>
    <edge id=":1796715258_0" function="internal">
        <lane id=":1796715258_0_0" index="0" disallow="tram rail_urban rail rail_electric rail_fast ship" speed="9.13" length="6.45" shape="2692.08,804.09 2692.67,805.92 2693.14,807.23 2693.92,808.27 2695.44,809.31"/>
    </edge>
    <edge id=":1796715258_1" function="internal">
        <lane id=":1796715258_1_0" index="0" disallow="tram rail_urban rail rail_electric rail_fast ship" speed="8.33" length="6.61" shape="2689.17,807.57 2691.12,807.68 2692.46,807.90 2693.72,808.39 2695.44,809.31"/>
    </edge>
    <edge id=":1976882862_0" function="internal">
        <lane id=":1976882862_0_0" index="0" disallow="pedestrian tram rail_urban rail rail_electric rail_fast ship" speed="13.89" length="0.27" shape="2660.86,646.78 2660.78,646.52"/>
    </edge>
    <edge id=":1976882886_0" function="internal">
        <lane id=":1976882886_0_0" index="0" disallow="truck trailer tram rail_urban rail rail_electric rail_fast ship" speed="10.56" length="7.18" shape="2686.59,831.86 2686.02,829.81 2685.48,828.41 2684.60,827.24 2683.02,825.87"/>
    </edge>
    <edge id=":1976882886_1" function="internal">
        <lane id=":1976882886_1_0" index="0" disallow="tram rail_urban rail rail_electric rail_fast ship" speed="8.33" length="7.24" shape="2689.63,828.32 2687.50,828.13 2686.04,827.81 2684.72,827.14 2683.02,825.87"/>
    </edge>
    <edge id=":1976882967_0" function="internal">
        <lane id=":1976882967_0_0" index="0" disallow="truck trailer tram rail_urban rail rail_electric rail_fast ship" speed="27.78" length="0.21" shape="2714.35,1244.48 2714.28,1244.68"/>
    </edge>
    <edge id=":1977072078_0" function="internal">
        <lane id=":1977072078_0_0" index="0" disallow="tram rail_urban rail rail_electric rail_fast ship" speed="6.08" length="9.02" shape="2498.51,390.19 2496.77,388.51 2494.94,387.98 2493.02,388.61 2491.02,390.39"/>
    </edge>
    <edge id=":1977072078_1" function="internal">
        <lane id=":1977072078_1_0" index="0" disallow="tram rail_urban rail rail_electric rail_fast ship" speed="8.67" length="13.94" shape="2498.51,390.19 2496.46,386.71 2495.68,383.43 2496.16,380.33 2497.91,377.42"/>
    </edge>
    <edge id=":1977072078_2" function="internal">
        <lane id=":1977072078_2_0" index="0" disallow="tram rail_urban rail rail_electric rail_fast ship" speed="3.68" length="4.78" shape="2498.51,390.19 2498.11,388.77 2498.34,387.88 2499.18,387.53 2500.65,387.71"/>
    </edge>
    <edge id=":1977072078_3" function="internal">
        <lane id=":1977072078_3_0" index="0" disallow="tram rail_urban rail rail_electric rail_fast ship" speed="7.07" length="8.98" shape="2500.36,379.49 2499.21,381.38 2498.87,383.39 2499.35,385.49 2500.65,387.71"/>
    </edge>
    <edge id=":1977072078_4" function="internal">
        <lane id=":1977072078_4_0" index="0" disallow="tram rail_urban rail rail_electric rail_fast ship" speed="13.89" length="14.35" shape="2500.36,379.49 2491.02,390.39"/>
    </edge>
    <edge id=":1977072078_5" function="internal">
        <lane id=":1977072078_5_0" index="0" disallow="tram rail_urban rail rail_electric rail_fast ship" speed="13.89" length="14.32" shape="2488.60,388.30 2497.91,377.42"/>
    </edge>
    <edge id=":1977072078_6" function="internal">
        <lane id=":1977072078_6_0" index="0" disallow="tram rail_urban rail rail_electric rail_fast ship" speed="7.54" length="14.51" shape="2488.60,388.30 2491.86,385.37 2494.96,384.29 2497.88,385.07 2500.65,387.71"/>
    </edge>
    <edge id=":2048206857_0" function="internal">
        <lane id=":2048206857_0_0" index="0" disallow="tram rail_urban rail rail_electric rail_fast ship" speed="16.66" length="0.30" shape="2276.14,1326.22 2276.40,1326.06"/>
    </edge>
    <edge id=":2451573262_0" function="internal">
        <lane id=":2451573262_0_0" index="0" disallow="tram rail_urban rail rail_electric rail_fast ship" speed="13.89" length="0.27" shape="1539.20,1749.63 1539.18,1749.90"/>
    </edge>
    <edge id=":2451573262_1" function="internal">
        <lane id=":2451573262_1_0" index="0" disallow="tram rail_urban rail rail_electric rail_fast ship" speed="13.89" length="0.31" shape="1535.98,1749.75 1536.00,1749.44"/>
    </edge>
    <edge id=":2451573264_0" function="internal">
        <lane id=":2451573264_0_0" index="0" disallow="tram rail_urban rail rail_electric rail_fast ship" speed="13.89" length="0.29" shape="1524.09,1985.18 1524.07,1985.47"/>
    </edge>
    <edge id=":2451573264_1" function="internal">
        <lane id=":2451573264_1_0" index="0" disallow="tram rail_urban rail rail_electric rail_fast ship" speed="13.89" length="0.31" shape="1520.87,1985.29 1520.89,1984.98"/>
    </edge>
    <edge id=":2452888163_0" function="internal">
        <lane id=":2452888163_0_0" index="0" disallow="tram rail_urban rail rail_electric rail_fast ship" speed="13.89" length="0.31" shape="1521.72,2025.09 1521.70,2025.40"/>
    </edge>
    <edge id=":2452888163_1" function="internal">
        <lane id=":2452888163_1_0" index="0" disallow="tram rail_urban rail rail_electric rail_fast ship" speed="13.89" length="0.29" shape="1518.50,2025.20 1518.52,2024.91"/>
    </edge>
    <edge id=":2452888191_0" function="internal">
        <lane id=":2452888191_0_0" index="0" disallow="tram rail_urban rail rail_electric rail_fast ship" speed="13.89" length="0.29" shape="1519.21,2065.54 1519.19,2065.83"/>
    </edge>
    <edge id=":2452888191_1" function="internal">
        <lane id=":2452888191_1_0" index="0" disallow="tram rail_urban rail rail_electric rail_fast ship" speed="13.89" length="0.31" shape="1515.99,2065.65 1516.01,2065.34"/>
    </edge>
    <edge id=":2556770626_0" function="internal">
        <lane id=":2556770626_0_0" index="0" disallow="tram rail_urban rail rail_electric rail_fast ship" speed="13.89" length="7.87" shape="1599.74,1048.05 1599.09,1050.27 1599.43,1052.00 1599.84,1053.76 1599.38,1056.07"/>
        <lane id=":2556770626_0_1" index="1" disallow="tram rail_urban rail rail_electric rail_fast ship" speed="13.89" length="7.87" shape="1599.74,1048.05 1598.67,1050.01 1597.97,1051.37 1597.33,1052.75 1596.44,1054.80"/>
    </edge>
    <edge id=":2556770626_2" function="internal">
        <lane id=":2556770626_2_0" index="0" disallow="tram rail_urban rail rail_electric rail_fast ship" speed="13.89" length="7.80" shape="1593.50,1053.53 1594.43,1051.40 1595.10,1049.96 1595.82,1048.55 1596.93,1046.52"/>
    </edge>
    <edge id=":2556776983_0" function="internal">
        <lane id=":2556776983_0_0" index="0" disallow="tram rail_urban rail rail_electric rail_fast ship" speed="13.89" length="1.04" shape="2287.96,616.38 2287.90,616.08 2287.88,615.87 2287.87,615.66 2287.88,615.35"/>
    </edge>
    <edge id=":2556776983_1" function="internal">
        <lane id=":2556776983_1_0" index="0" disallow="tram rail_urban rail rail_electric rail_fast ship" speed="12.50" length="0.35" shape="2291.08,615.48 2291.08,615.58 2291.08,615.65 2291.09,615.72 2291.11,615.82"/>
    </edge>
    <edge id=":2556814032_0" function="internal">
        <lane id=":2556814032_0_0" index="0" disallow="tram rail_urban rail rail_electric rail_fast ship" speed="11.11" length="0.29" shape="2514.48,611.61 2514.30,611.84"/>
    </edge>
    <edge id=":2556814032_1" function="internal">
        <lane id=":2556814032_1_0" index="0" disallow="tram rail_urban rail rail_electric rail_fast ship" speed="11.11" length="0.31" shape="2511.76,609.90 2511.94,609.65"/>
    </edge>
    <edge id=":2556814054_0" function="internal">
        <lane id=":2556814054_0_0" index="0" disallow="tram rail_urban rail rail_electric rail_fast ship" speed="13.89" length="8.35" shape="2031.20,770.10 2028.91,771.06 2027.64,772.44 2026.37,773.83 2024.09,774.84"/>
        <lane id=":2556814054_0_1" index="1" disallow="tram rail_urban rail rail_electric rail_fast ship" speed="13.89" length="8.35" shape="2031.20,770.10 2023.41,771.72"/>
    </edge>
    <edge id=":2556814054_2" function="internal">
        <lane id=":2556814054_2_0" index="0" disallow="tram rail_urban rail rail_electric rail_fast ship" speed="13.89" length="8.03" shape="2022.72,768.59 2030.58,766.96"/>
    </edge>
    <edge id=":2556814072_0" function="internal">
        <lane id=":2556814072_0_0" index="0" disallow="tram rail_urban rail rail_electric rail_fast ship" speed="20.84" length="0.29" shape="2609.84,545.60 2609.66,545.38"/>
    </edge>
    <edge id=":2556814076_0" function="internal">
        <lane id=":2556814076_0_0" index="0" disallow="tram rail_urban rail rail_electric rail_fast ship" speed="13.89" length="8.02" shape="2143.69,745.54 2135.86,747.31"/>
    </edge>
    <edge id=":2556814076_1" function="internal">
        <lane id=":2556814076_1_0" index="0" disallow="tram rail_urban rail rail_electric rail_fast ship" speed="13.89" length="8.38" shape="2135.17,744.18 2137.46,743.16 2138.71,741.76 2139.96,740.34 2142.24,739.30"/>
        <lane id=":2556814076_1_1" index="1" disallow="tram rail_urban rail rail_electric rail_fast ship" speed="13.89" length="8.38" shape="2135.17,744.18 2142.96,742.42"/>
    </edge>
    <edge id=":2556814102_0" function="internal">
        <lane id=":2556814102_0_0" index="0" disallow="tram rail_urban rail rail_electric rail_fast ship" speed="9.49" length="7.48" shape="2602.31,538.08 2600.45,536.91 2599.02,536.32 2597.47,536.22 2595.30,536.48"/>
    </edge>
    <edge id=":2556814102_1" function="internal">
        <lane id=":2556814102_1_0" index="0" disallow="tram rail_urban rail rail_electric rail_fast ship" speed="11.22" length="7.59" shape="2602.05,533.51 2600.38,534.96 2599.04,535.73 2597.51,536.14 2595.30,536.48"/>
    </edge>
    <edge id=":2559455839_0" function="internal">
        <lane id=":2559455839_0_0" index="0" disallow="tram rail_urban rail rail_electric rail_fast ship" speed="11.11" length="0.29" shape="2531.17,589.81 2530.99,590.04"/>
    </edge>
    <edge id=":2559455839_1" function="internal">
        <lane id=":2559455839_1_0" index="0" disallow="tram rail_urban rail rail_electric rail_fast ship" speed="11.11" length="0.31" shape="2528.45,588.10 2528.63,587.86"/>
    </edge>
    <edge id=":2559455845_0" function="internal">
        <lane id=":2559455845_0_0" index="0" disallow="tram rail_urban rail rail_electric rail_fast ship" speed="16.66" length="0.41" shape="2552.12,562.48 2551.90,562.83"/>
    </edge>
    <edge id=":2559455845_1" function="internal">
        <lane id=":2559455845_1_0" index="0" disallow="tram rail_urban rail rail_electric rail_fast ship" speed="16.66" length="0.55" shape="2549.36,560.88 2549.72,560.45"/>
    </edge>
    <edge id=":2561454243_0" function="internal">
        <lane id=":2561454243_0_0" index="0" disallow="tram rail_urban rail rail_electric rail_fast ship" speed="13.89" length="0.30" shape="942.61,1844.24 942.35,1844.37"/>
    </edge>
    <edge id=":2562667213_0" function="internal">
        <lane id=":2562667213_0_0" index="0" disallow="tram rail_urban rail rail_electric rail_fast ship" speed="13.89" length="0.30" shape="1525.69,1959.89 1525.67,1960.19"/>
    </edge>
    <edge id=":2562667213_1" function="internal">
        <lane id=":2562667213_1_0" index="0" disallow="tram rail_urban rail rail_electric rail_fast ship" speed="13.89" length="0.30" shape="1522.47,1959.99 1522.49,1959.69"/>
    </edge>
    <edge id=":2562703866_0" function="internal">
        <lane id=":2562703866_0_0" index="0" disallow="pedestrian tram rail_urban rail rail_electric rail_fast ship" speed="13.89" length="0.30" shape="2812.40,1420.75 2812.11,1420.67"/>
    </edge>
    <edge id=":2562703866_1" function="internal">
        <lane id=":2562703866_1_0" index="0" disallow="pedestrian tram rail_urban rail rail_electric rail_fast ship" speed="13.89" length="0.30" shape="2813.04,1417.61 2813.33,1417.69"/>
    </edge>
    <edge id=":2562714668_0" function="internal">
        <lane id=":2562714668_0_0" index="0" disallow="tram rail_urban rail rail_electric rail_fast ship" speed="13.89" length="0.15" shape="1514.83,2137.33 1514.82,2137.48"/>
    </edge>
    <edge id=":2562714668_1" function="internal">
        <lane id=":2562714668_1_0" index="0" disallow="tram rail_urban rail rail_electric rail_fast ship" speed="13.89" length="0.15" shape="1508.43,2137.09 1508.44,2136.94"/>
        <lane id=":2562714668_1_1" index="1" disallow="tram rail_urban rail rail_electric rail_fast ship" speed="13.89" length="0.15" shape="1511.62,2137.28 1511.63,2137.13"/>
    </edge>
    <edge id=":2562959277_0" function="internal">
        <lane id=":2562959277_0_0" index="0" disallow="truck trailer tram rail_urban rail rail_electric rail_fast ship" speed="13.89" length="0.30" shape="2343.93,1158.61 2343.93,1158.52 2343.92,1158.46 2343.91,1158.40 2343.88,1158.31"/>
    </edge>
    <edge id=":2562959277_1" function="internal">
        <lane id=":2562959277_1_0" index="0" disallow="truck trailer tram rail_urban rail rail_electric rail_fast ship" speed="13.89" length="0.91" shape="2347.08,1157.47 2347.12,1158.37"/>
    </edge>
    <edge id=":2563766420_0" function="internal">
        <lane id=":2563766420_0_0" index="0" disallow="tram rail_urban rail rail_electric rail_fast ship" speed="13.89" length="0.10" shape="1520.22,2049.30 1520.22,2049.30"/>
    </edge>
    <edge id=":2563766420_1" function="internal">
        <lane id=":2563766420_1_0" index="0" disallow="tram rail_urban rail rail_electric rail_fast ship" speed="13.89" length="0.10" shape="1517.02,2049.10 1517.02,2049.10"/>
    </edge>
    <edge id=":2564410922_0" function="internal">
        <lane id=":2564410922_0_0" index="0" disallow="tram rail_urban rail rail_electric rail_fast ship" speed="3.65" length="4.67" shape="2831.75,405.57 2833.18,405.79 2833.88,406.34 2833.86,407.24 2833.11,408.47"/>
    </edge>
    <edge id=":2564448364_0" function="internal">
        <lane id=":2564448364_0_0" index="0" disallow="tram rail_urban rail rail_electric rail_fast ship" speed="27.78" length="0.30" shape="2701.32,1277.44 2701.20,1277.72"/>
    </edge>
    <edge id=":2564495646_0" function="internal">
        <lane id=":2564495646_0_0" index="0" disallow="tram rail_urban rail rail_electric rail_fast ship" speed="9.50" length="7.29" shape="2697.45,824.79 2696.07,826.41 2695.36,827.73 2695.08,829.22 2695.00,831.37"/>
    </edge>
    <edge id=":2564495646_1" function="internal">
        <lane id=":2564495646_1_0" index="0" disallow="tram rail_urban rail rail_electric rail_fast ship" speed="8.33" length="7.36" shape="2697.45,824.79 2695.93,826.32 2694.70,827.19 2693.27,827.72 2691.16,828.22"/>
    </edge>
    <edge id=":2757928147_0" function="internal">
        <lane id=":2757928147_0_0" index="0" disallow="tram rail_urban rail rail_electric rail_fast ship" speed="22.22" length="0.30" shape="2093.56,1438.27 2093.82,1438.11"/>
    </edge>
    <edge id=":2892142441_0" function="internal">
        <lane id=":2892142441_0_0" index="0" disallow="tram rail_urban rail rail_electric rail_fast ship" speed="13.89" length="8.10" shape="1487.32,1581.87 1480.00,1585.33"/>
    </edge>
    <edge id=":2892142441_1" function="internal">
        <lane id=":2892142441_1_0" index="0" disallow="tram rail_urban rail rail_electric rail_fast ship" speed="13.89" length="9.09" shape="1478.61,1582.45 1480.53,1580.44 1480.71,1577.95 1480.88,1575.43 1482.76,1573.31"/>
        <lane id=":2892142441_1_1" index="1" disallow="tram rail_urban rail rail_electric rail_fast ship" speed="13.89" length="9.09" shape="1478.61,1582.45 1480.58,1580.97 1481.47,1579.35 1482.34,1577.70 1484.27,1576.13"/>
        <lane id=":2892142441_1_2" index="2" disallow="tram rail_urban rail rail_electric rail_fast ship" speed="13.89" length="9.09" shape="1478.61,1582.45 1485.77,1578.96"/>
    </edge>
    <edge id=":2924318332_0" function="internal">
        <lane id=":2924318332_0_0" index="0" disallow="tram rail_urban rail rail_electric rail_fast ship" speed="22.22" length="0.31" shape="1597.41,1538.22 1597.51,1538.21 1597.57,1538.21 1597.63,1538.22 1597.73,1538.23"/>
    </edge>
    <edge id=":3254395892_0" function="internal">
        <lane id=":3254395892_0_0" index="0" disallow="tram rail_urban rail rail_electric rail_fast ship" speed="12.50" length="0.31" shape="2380.66,504.50 2380.43,504.71"/>
    </edge>
    <edge id=":3254395892_1" function="internal">
        <lane id=":3254395892_1_0" index="0" disallow="tram rail_urban rail rail_electric rail_fast ship" speed="13.89" length="0.27" shape="2378.27,502.35 2378.47,502.16"/>
    </edge>
    <edge id=":3254395893_0" function="internal">
        <lane id=":3254395893_0_0" index="0" disallow="tram rail_urban rail rail_electric rail_fast ship" speed="13.89" length="8.00" shape="1868.10,850.08 1861.25,854.22"/>
    </edge>
    <edge id=":3254395893_1" function="internal">
        <lane id=":3254395893_1_0" index="0" disallow="tram rail_urban rail rail_electric rail_fast ship" speed="13.89" length="8.40" shape="1859.60,851.48 1861.45,849.78 1862.19,848.04 1862.94,846.30 1864.79,844.60"/>
        <lane id=":3254395893_1_1" index="1" disallow="tram rail_urban rail rail_electric rail_fast ship" speed="13.89" length="8.40" shape="1859.60,851.48 1866.44,847.34"/>
    </edge>
    <edge id=":3254395894_0" function="internal">
        <lane id=":3254395894_0_0" index="0" disallow="tram rail_urban rail rail_electric rail_fast ship" speed="13.89" length="7.97" shape="1543.64,1676.45 1543.07,1684.40"/>
    </edge>
    <edge id=":3254395894_1" function="internal">
        <lane id=":3254395894_1_0" index="0" disallow="tram rail_urban rail rail_electric rail_fast ship" speed="13.89" length="8.41" shape="1539.88,1684.18 1539.54,1681.69 1538.55,1680.07 1537.57,1678.45 1537.26,1675.96"/>
        <lane id=":3254395894_1_1" index="1" disallow="tram rail_urban rail rail_electric rail_fast ship" speed="13.89" length="8.41" shape="1539.88,1684.18 1540.45,1676.20"/>
    </edge>
    <edge id=":3254395895_0" function="internal">
        <lane id=":3254395895_0_0" index="0" disallow="tram rail_urban rail rail_electric rail_fast ship" speed="13.89" length="8.02" shape="1513.15,2164.76 1512.61,2172.76"/>
    </edge>
    <edge id=":3254395895_1" function="internal">
        <lane id=":3254395895_1_0" index="0" disallow="tram rail_urban rail rail_electric rail_fast ship" speed="13.89" length="8.38" shape="1509.42,2172.53 1509.10,2170.05 1508.11,2168.45 1507.11,2166.85 1506.76,2164.37"/>
        <lane id=":3254395895_1_1" index="1" disallow="tram rail_urban rail rail_electric rail_fast ship" speed="13.89" length="8.38" shape="1509.42,2172.53 1509.96,2164.56"/>
    </edge>
    <edge id=":419734825_0" function="internal">
        <lane id=":419734825_0_0" index="0" disallow="tram rail_urban rail rail_electric rail_fast ship" speed="13.89" length="14.24" shape="1973.06,790.15 1968.95,791.93 1965.59,792.63 1962.60,793.16 1959.57,794.46"/>
    </edge>
    <edge id=":419734825_1" function="internal">
        <lane id=":419734825_1_0" index="0" disallow="tram rail_urban rail rail_electric rail_fast ship" speed="8.36" length="16.67" shape="1971.47,787.37 1967.62,788.72 1964.17,788.15 1961.11,785.66 1958.46,781.25"/>
    </edge>
    <edge id=":419734825_2" function="internal">
        <lane id=":419734825_2_0" index="0" disallow="tram rail_urban rail rail_electric rail_fast ship" speed="6.97" length="11.23" shape="1961.36,779.88 1963.19,783.02 1965.22,784.86 1967.46,785.38 1969.89,784.59"/>
    </edge>
    <edge id=":419734825_3" function="internal">
        <lane id=":419734825_3_0" index="0" disallow="tram rail_urban rail rail_electric rail_fast ship" speed="8.94" length="16.18" shape="1961.36,779.88 1963.03,784.72 1963.30,788.76 1962.14,792.01 1959.57,794.46"/>
    </edge>
    <edge id=":419734825_4" function="internal">
        <lane id=":419734825_4_0" index="0" disallow="tram rail_urban rail rail_electric rail_fast ship" speed="6.82" length="9.01" shape="1956.17,789.04 1958.02,787.48 1959.02,785.67 1959.17,783.59 1958.46,781.25"/>
    </edge>
    <edge id=":419734825_5" function="internal">
        <lane id=":419734825_5_0" index="0" disallow="tram rail_urban rail rail_electric rail_fast ship" speed="13.89" length="13.99" shape="1957.87,791.75 1969.89,784.59"/>
    </edge>
    <edge id=":429720418_0" function="internal">
        <lane id=":429720418_0_0" index="0" disallow="tram rail_urban rail rail_electric rail_fast ship" speed="13.89" length="0.29" shape="1121.81,1751.60 1122.07,1751.48"/>
    </edge>
    <edge id=":429723372_0" function="internal">
        <lane id=":429723372_0_0" index="0" disallow="tram rail_urban rail rail_electric rail_fast ship" speed="13.89" length="0.29" shape="1005.41,1812.72 1005.15,1812.85"/>
    </edge>
    <edge id=":429723372_1" function="internal">
        <lane id=":429723372_1_0" index="0" disallow="tram rail_urban rail rail_electric rail_fast ship" speed="13.89" length="0.30" shape="1003.76,1809.96 1004.04,1809.83"/>
    </edge>
    <edge id=":429723377_0" function="internal">
        <lane id=":429723377_0_0" index="0" disallow="truck trailer tram rail_urban rail rail_electric rail_fast ship" speed="6.47" length="9.03" shape="1210.84,1157.37 1210.37,1154.94 1209.24,1153.25 1207.43,1152.31 1204.96,1152.11"/>
    </edge>
    <edge id=":429723377_1" function="internal">