<?xml version="1.0" encoding="UTF-8"?>

<!-- generated on 2024-04-14 22:26:08.309601 by randomTrips.py v1_19_0+0000-baa66a0f364
<configuration>
    <net-file value="wielun.net.xml"/>
    <output-trip-file value="wielun.truck.trips.xml"/>
    <route-file value="wielun.truck.rou.xml"/>
    <prefix value="truck"/>
    <trip-attributes value="departLane=&quot;best&quot;"/>
    <fringe-start-attributes value="departSpeed=&quot;max&quot;"/>
    <vehicle-class value="truck"/>
    <fringe-factor value="5"/>
    <vclass value="truck"/>
    <via-edge-types value="highway.motorway,highway.motorway_link,highway.trunk_link,highway.primary_link,highway.secondary_link,highway.tertiary_link"/>
    <min-distance value="600.0"/>
    <min-distance.fringe value="10.0"/>
    <remove-loops value="True"/>
    <validate value="True"/>
    <insertion-density value="8.0"/>
</configuration>
-->

<!-- generated on 2024-04-14 22:26:08 by Eclipse SUMO duarouter Version 1.19.0
<configuration xmlns:xsi="http://www.w3.org/2001/XMLSchema-instance" xsi:noNamespaceSchemaLocation="http://sumo.dlr.de/xsd/duarouterConfiguration.xsd">

    <input>
        <net-file value="wielun.net.xml"/>
        <route-files value="wielun.truck.trips.xml"/>
    </input>

    <output>
        <output-file value="wielun.truck.rou.xml"/>
        <alternatives-output value="NUL"/>
    </output>

    <processing>
        <remove-loops value="true"/>
    </processing>

    <time>
        <begin value="0.0"/>
        <end value="3600.0"/>
    </time>

    <report>
        <no-warnings value="true"/>
        <ignore-errors value="true"/>
        <no-step-log value="true"/>
    </report>

</configuration>
-->

<routes xmlns:xsi="http://www.w3.org/2001/XMLSchema-instance" xsi:noNamespaceSchemaLocation="http://sumo.dlr.de/xsd/routes_file.xsd">
    <vType id="truck_truck" vClass="truck"/>
    <vehicle id="truck0" type="truck_truck" depart="0.00" departLane="best" departSpeed="max">
        <route edges="42340628#0 42340628#1 319023527 -237264805#1 -319023535#2 -319023535#0 -549118422 -42340641#1 -319023542#1 -549008000 -549008043#2 -549008046#2 -549008048 -1152230290"/>
    </vehicle>
    <vehicle id="truck1" type="truck_truck" depart="13.79" departLane="best">
        <route edges="-549008079 -549008078 -237382756 -549008071 -549008074 -237382742#2 42336835#0 549118408 549008065 288875956 549118404 962307428 194296246 -39122228 777538786 1196694183 777538784 -974646436 777538788 1196694175 777538792 -549008039#1"/>
    </vehicle>
    <vehicle id="truck2" type="truck_truck" depart="27.58" departLane="best">
        <route edges="549008056 1046109806#0 549008060 549008059 549008062 549008063 288875953#0 549008070 411763899#0 549008066 438404111 549008043#0 42340648 319023542#0 42340641#0 549118422 319023535#0 319023535#1 549008039#0"/>
    </vehicle>
    <vehicle id="truck3" type="truck_truck" depart="41.38" departLane="best">
        <route edges="777538770 411763917 42340609 1196694169 1196694172 1196694173 42340610 1196694167 186938889 186938890 549118393#0 549118396 549118397 1062301256 1148646859 974006868#0 974006868#1 974006868#2 974006867 -42336836 -1132700068 1062682404 962307427 -288875956 -1073046199 288875955#0 288875954#0 -549008063 1078784919 1078784920 1078784922 1046107949 1078784924#0 -549008056 -1046109807 549008057 549008055 549008052 549008051 1263276573 1046109808 -249826562"/>
    </vehicle>
    <vehicle id="truck4" type="truck_truck" depart="55.17" departLane="best">
        <route edges="1134433961 -549008083#0 -549008084 -549008080 -549008081 -549008079 -549008078 -237382756 -549008071 -549008074 -237382742#2 549008070 411763899#0 549008066 438404111 -549008046#2 -549008048 -1152230290"/>
    </vehicle>
    <vehicle id="truck5" type="truck_truck" depart="68.96" departLane="best">
        <route edges="-549008039#1 -319023535#2 -319023535#0 -549118422 -42340641#1 -319023542#1 -549008000 -549008043#2 -437406387#2 -549008066 -549008067 -549008070 288875954#0"/>
    </vehicle>
    <vehicle id="truck6" type="truck_truck" depart="82.75" departLane="best" departSpeed="max">
        <route edges="-1202362037 -331657131 1236950840 974006868#0 974006868#1 974006868#2 974006867 -42336836 -1132700068 -39122228 777538786 1196694183 777538784 -974646436 777538788 1196694175 777538792 -549008039#1 -319023535#2 -319023535#0 -549118422 -42340641#1 42340642#0"/>
    </vehicle>
    <vehicle id="truck7" type="truck_truck" depart="96.54" departLane="best">
        <route edges="42340641#0 549118422 319023535#0 319023535#1 42340613#0 549008036 549008035 778096185 1196696796 1196696797 1196696798 1196696799 777538772 777538774 814268085 769716782 1196694173 42340610 1196694167 186938889 186938890 549118393#0 549118396 549118397 1062301256 1148646859 974006868#0 1134433961 1223056399 319023546#1"/>
    </vehicle>
    <vehicle id="truck8" type="truck_truck" depart="110.34" departLane="best">
        <route edges="-549008083#0 -549008084 -549008080 -549008081 -549008079 -549008078 -237382756 -549008071 -549008074 -237382742#2 288875954#0 -549008063 1078784919 1078784920 1078784922 1046107949 1078784924#0 -549008056 -1046109807 549008057 549008055"/>
    </vehicle>
    <vehicle id="truck9" type="truck_truck" depart="124.13" departLane="best">
        <route edges="778096186 777538772 777538774 814268085 769716782 1196694173 42340610 1196694167 186938889 186938890 549118393#0 549118396 549118397 1062301256 1148646859 974006868#0 974006868#1 974006868#2 974006867 -42336836 -1132700068 1062682404 962307427 -288875956 -1073046199 288875955#0 288875954#0 -549008063 1078784919 1078784920 1078784922 1046107949"/>
    </vehicle>
    <vehicle id="truck10" type="truck_truck" depart="137.92" departLane="best" departSpeed="max">
        <route edges="-319023546#1 -319023546#0 -319023554 -549008085 -549008083#0 -549008084 -549008080 -549008081 -549008079 -549008078 -237382756 -549008071 -549008074 -237382742#2 42336835#0 549118408 549008065 288875956 549118404 962307428 194296246 -39122228 777538786 1196694183 777538784 -974646436 777538788 1196694175 777538792 -549008039#1 237264805#1 -319023527"/>
    </vehicle>
    <vehicle id="truck11" type="truck_truck" depart="151.71" departLane="best">
        <route edges="549118422 319023535#0 319023535#1 42340613#0 549008036 549008035 778096185 1196696796 1196696797 1196696798 1196696799 777538772 777538774 814268085 769716782 1196694173 42340610 1196694167 186938889 186938890 549118393#0 549118396 549118397 1062301256 1148646859 974006868#0 974006868#1 974006868#2 1148646858 1148646857 777538770 411763917 42340609"/>
    </vehicle>
    <vehicle id="truck12" type="truck_truck" depart="165.50" departLane="best">
        <route edges="1078784913 1078784916 1046100143 1078784918 1078784915 1046109807 549008056 1046109806#0 549008060 549008059 549008062 549008063 288875953#0 237382742#0 549008074 549008071 319023556 549008078 549008079 549008081 549008080 549008084 549008083#0 549008085 319023554 319023546#0 319023546#1"/>
    </vehicle>
    <vehicle id="truck13" type="truck_truck" depart="179.29" departLane="best">
        <route edges="549118397 1062301256 1148646859 974006868#0 974006868#1 974006868#2 974006867 -42336836 -1132700068 -39122228 777538786 1196694183 777538784 -974646436 777538788 1196694175 777538792 -549008039#1 -319023535#2 -319023535#0 -549118422 -42340641#1"/>
    </vehicle>
    <vehicle id="truck14" type="truck_truck" depart="193.09" departLane="best">
        <route edges="549008046#0 -437406387#2 -549008066 -549008067 -549008070 237382742#0 549008074 549008071 319023556 549008078 549008079 549008081"/>
    </vehicle>
    <vehicle id="truck15" type="truck_truck" depart="206.88" departLane="best">
        <route edges="-319023535#2 -319023535#0 -549118422 -42340641#1 -319023542#1 -549008000 -549008043#2 -549008046#2"/>
    </vehicle>
    <vehicle id="truck16" type="truck_truck" depart="220.67" departLane="best" departSpeed="max">
        <route edges="-319023546#1 -319023546#0 -319023554 -549008085 -549008083#0 -549008084 -549008080 -549008081 -549008079 -549008078"/>
    </vehicle>
    <vehicle id="truck17" type="truck_truck" depart="234.46" departLane="best" departSpeed="max">
        <route edges="42340628#0 -792659379 778096183 1196696798 1196696799 777538772 777538774 814268085 769716782 1196694173 42340610 1196694167 186938889 186938890 549118393#0 549118396 549118397 1062301256 1148646859 974006868#0 974006868#1 974006868#2 974006867 -42336836 -1132700068 1062682404 962307427 -288875956 -1073046199 288875955#0 288875954#0 -549008063 1078784919 1078784920 1078784922 1046107949 1078784924#0 -549008056 -1046109807 549008057 549008055 549008052 549008051 1263276573 1046109808 -249826562 249826562 1078784913"/>
    </vehicle>
    <vehicle id="truck18" type="truck_truck" depart="248.25" departLane="best">
        <route edges="1046109808 -249826562 249826562 1078784913 1078784916 1046100143 1078784918 1078784915 1046109807 549008056 1046109806#0 549008060 549008059 549008062 549008063 288875953#0 549008070 411763899#0 549008066 438404111 549008043#0 42340648"/>
    </vehicle>
    <vehicle id="truck19" type="truck_truck" depart="262.05" departLane="best">
        <route edges="-549008078 -237382756 -549008071 -549008074 -237382742#2 42336835#0 549118408 549008065 288875956 549118404 962307428 194296246 1132700068 1149133719 974006864 1148646857 777538770 411763917 42340609 1196694169 194355534 769716780 720901625 248975819 1196696794 1196696795 1196696796 1196696797 1196696798 778096187"/>
    </vehicle>
    <vehicle id="truck20" type="truck_truck" depart="275.84" departLane="best" departSpeed="max">
        <route edges="-42340646 -42340642#1 -319023542#1 -549008000 -549008043#2 -437406387#2 -549008066 -549008067 -549008070 288875954#0 -549008063"/>
    </vehicle>
    <vehicle id="truck21" type="truck_truck" depart="289.63" departLane="best" departSpeed="max">
        <route edges="-42340646 -42340642#1 -319023542#1 -549008000 -549008043#2 -437406387#2 -549008066 -549008067 -549008070 288875954#0 -549008063 1078784919 1078784920 1078784922 1046107949 1078784924#0 -549008056 -1046109807 549008057 549008055 549008052 549008051 1263276573 1046109808 -249826562 249826562 1078784913 1078784916 1046100143 1078784918"/>
    </vehicle>
    <vehicle id="truck22" type="truck_truck" depart="303.42" departLane="best">
        <route edges="974006864 1148646857 777538770 411763917 42340609 1196694169 194355534 769716780 720901625 248975819 1196696794 778096184 -549008035 -549008036 -249487869 -319023535#2 -319023535#0 -549118422 -42340641#1 42340642#0 42340647"/>
    </vehicle>
    <vehicle id="truck23" type="truck_truck" depart="317.21" departLane="best">
        <route edges="-319023554 -549008085 -549008083#0 -549008084 -549008080 -549008081 -549008079 -549008078 -237382756 -549008071 -549008074 -237382742#2 549008070 411763899#0 549008066 438404111 -549008046#2"/>
    </vehicle>
    <vehicle id="truck24" type="truck_truck" depart="331.01" departLane="best">
        <route edges="-549008048 -1152230290"/>
    </vehicle>
    <vehicle id="truck25" type="truck_truck" depart="344.80" departLane="best" departSpeed="max">
        <route edges="-792723120 778096186 777538772 777538774 814268085 769716782 1196694173 42340610 1196694167 186938889 186938890 549118393#0 549118396 549118397 1062301256 1148646859 974006868#0 1134433961 -549008083#0 -549008084 -549008080 -549008081 -549008079 -549008078 -237382756 -549008071"/>
    </vehicle>
    <vehicle id="truck26" type="truck_truck" depart="358.59" departLane="best">
        <route edges="-42340642#1 -319023542#1 -549008000 -549008043#2 -437406387#2 -549008066 -549008067 -549008070 288875954#0 -549008063 1078784919 1078784920 1078784922 1046107949 1078784924#0"/>
    </vehicle>
    <vehicle id="truck27" type="truck_truck" depart="372.38" departLane="best">
        <route edges="777538787 39122228 1062682404 962307427 -288875956 -1073046199 288875955#0 288875954#0 -549008063 1078784919 1078784920 1078784922 1046107949 1078784924#0 -549008056 -1046109807 549008057 549008055 549008052 549008051 1263276573"/>
    </vehicle>
    <vehicle id="truck28" type="truck_truck" depart="386.17" departLane="best">
        <route edges="42336835#0 549118408 549008065 288875956 549118404 962307428 194296246 -39122228 777538786 1196694183 777538784 -974646436 777538788"/>
    </vehicle>
    <vehicle id="truck29" type="truck_truck" depart="399.97" departLane="best">
        <route edges="549008062 549008063 288875953#0 42336835#0 549118408 549008065 288875956 549118404 962307428 194296246 1132700068 1149133719 974006864 1148646857 777538770 411763917 42340609 1196694169 194355534 769716780 720901625 248975819 1196696794 778096184 -549008035 -549008036"/>
    </vehicle>
    <vehicle id="truck30" type="truck_truck" depart="413.76" departLane="best">
        <route edges="974006867 -42336836 -1132700068 1062682404 962307427 -288875956 -1073046199 288875955#0"/>
    </vehicle>
    <vehicle id="truck31" type="truck_truck" depart="427.55" departLane="best" departSpeed="max">
        <route edges="-319023546#1 -319023546#0 -319023554 -549008085 709217977 974006868#2 1148646858 1148646857 777538770 411763917 42340609 1196694169 194355534 769716780 720901625 248975819 1196696794 1196696795 1196696796 778096182 791651315 42340628#1 319023527 -237264805#1"/>
    </vehicle>
    <vehicle id="truck32" type="truck_truck" depart="441.34" departLane="best" departSpeed="max">
        <route edges="-319023546#1 -319023546#0 -319023554 -549008085 -549008083#0 -549008084 -549008080 -549008081 -549008079 -549008078 -237382756 -549008071 -549008074 -237382742#2 549008070 411763899#0 549008066 438404111 549008043#0 42340648 319023542#0 42340642#0 42340647"/>
    </vehicle>
    <vehicle id="truck33" type="truck_truck" depart="455.13" departLane="best">
        <route edges="549008079 549008081 549008080 549008084 549008083#0 709217977 974006868#2 1148646858 1148646857 1148646856 1062301256 974006865 331657131 1202362037"/>
    </vehicle>
    <vehicle id="truck34" type="truck_truck" depart="468.92" departLane="best">
        <route edges="-288875956 -1073046199 288875955#0 288875954#0 -549008063 1078784919"/>
    </vehicle>
    <vehicle id="truck35" type="truck_truck" depart="482.72" departLane="best">
        <route edges="974006867 -42336836 -1132700068 -39122228 777538786 1196694183 777538784 -974646436 777538788 1196694175 777538792 -549008039#1 -319023535#2"/>
    </vehicle>
    <vehicle id="truck36" type="truck_truck" depart="496.51" departLane="best">
        <route edges="-1132700068 1062682404 962307427 -288875956 -1073046199 288875955#0 288875954#0 -549008063 1078784919 1078784920 1078784922 1046107949 1078784924#0 -549008056 -1046109807 549008057 549008055 549008052 549008051 1263276573 1046109808 -249826562 249826562 1078784913 1078784916 1046100143 1078784918 1078784915 1046109807 549008056 1046109806#0 549008060"/>
    </vehicle>
    <vehicle id="truck37" type="truck_truck" depart="510.30" departLane="best" departSpeed="max">
        <route edges="42373465 1152230292 549008046#0 -437406387#2 -549008066 -549008067 -549008070 237382742#0 549008074 549008071 319023556 549008078 549008079 549008081 549008080 549008084 549008083#0 549008085 319023554 319023546#0"/>
    </vehicle>
    <vehicle id="truck38" type="truck_truck" depart="524.09" departLane="best">
        <route edges="-549008078 -237382756 -549008071 -549008074 -237382742#2 549008070 411763899#0 549008066 438404111 549008043#0 42340648 319023542#0 42340642#0 42340647"/>
    </vehicle>
    <vehicle id="truck39" type="truck_truck" depart="537.88" departLane="best" departSpeed="max">
        <route edges="-319023546#1 -319023546#0 -319023554 -549008085 709217977 974006868#2 1148646858 1148646857 1148646856 1062301256 974006865 331657131 1202362037"/>
    </vehicle>
    <vehicle id="truck40" type="truck_truck" depart="551.68" departLane="best" departSpeed="max">
        <route edges="-1132700068 1062682404 962307427 -288875956 -1073046199 288875955#0 549008070"/>
    </vehicle>
    <vehicle id="truck41" type="truck_truck" depart="565.47" departLane="best" departSpeed="max">
        <route edges="249826562 1078784913 1078784916 1046100143 1078784918 1078784915 1046109807 549008056 1046109806#0 549008060 549008059 549008062 549008063 288875953#0 42336835#0 549118408 549008065 288875956 549118404 962307428 194296246 1132700068 1149133719 974006864 1148646857 777538770 411763917 42340609 1196694169 194355534 769716780 720901625 248975819 1196696794 1196696795 1196696796 778096182 791651315 -42340628#0"/>
    </vehicle>
    <vehicle id="truck42" type="truck_truck" depart="579.26" departLane="best">
        <route edges="777538786 1196694183 777538784 -974646436 777538788 1196694175 777538792 -549008039#1 42340613#0 549008036 549008035 778096185 1196696796 1196696797 1196696798 1196696799 777538772 777538774"/>
    </vehicle>
    <vehicle id="truck43" type="truck_truck" depart="593.05" departLane="best">
        <route edges="-549008085 -549008083#0 -549008084 -549008080 -549008081 -549008079 -549008078 -237382756 -549008071 -549008074 -237382742#2 549008070 411763899#0 549008066 438404111 549008043#0 42340648 319023542#0 42340642#0 42340647"/>
    </vehicle>
    <vehicle id="truck44" type="truck_truck" depart="606.84" departLane="best">
        <route edges="549008065 288875956 549118404 962307428 194296246 1132700068 1149133719 974006864 1148646857 1148646856 1062301256 1148646859 974006868#0 1134433961 549008085 319023554 319023546#0"/>
    </vehicle>
    <vehicle id="truck45" type="truck_truck" depart="620.64" departLane="best">
        <route edges="-549008071 -549008074 -237382742#2 549008070 411763899#0 549008066 438404111 549008043#0 42340648 319023542#0 42340641#0 549118422 319023535#0 319023535#1"/>
    </vehicle>
    <vehicle id="truck46" type="truck_truck" depart="634.43" departLane="best">
        <route edges="1046109807 549008056 1046109806#0 549008060 549008059 549008062 549008063 288875953#0 42336835#0 549118408 549008065 288875956 549118404 962307428 194296246 1132700068 1149133719 974006864 1148646857 777538770 411763917 42340609 1196694169 1196694172 1196694173 1030991935 1030991934"/>
    </vehicle>
    <vehicle id="truck47" type="truck_truck" depart="648.22" departLane="best" departSpeed="max">
        <route edges="-1202362037 -331657131 1236950840 974006868#0 974006868#1 974006868#2 974006867 -42336836 -1132700068 -39122228 777538786 1196694183 777538784 -974646436 777538788 1196694175 777538792 -549008039#1 42340613#0 549008036 549008035 778096185"/>
    </vehicle>
    <vehicle id="truck48" type="truck_truck" depart="662.01" departLane="best">
        <route edges="720901625 248975819 1196696794 778096184 -549008035 -549008036 -249487869 -319023535#2 -319023535#0 -549118422 -42340641#1 42340642#0 549118415"/>
    </vehicle>
    <vehicle id="truck49" type="truck_truck" depart="675.80" departLane="best">
        <route edges="-792659379 778096183 1196696798 1196696799 777538772 777538774 814268085 769716782 1196694173 42340610 1196694167 186938889 186938890 549118393#0 549118396 549118397 1062301256 1148646859 974006868#0 1134433961 -549008083#0 -549008084 -549008080 -549008081 -549008079 -549008078 -237382756"/>
    </vehicle>
    <vehicle id="truck50" type="truck_truck" depart="689.60" departLane="best">
        <route edges="-319023527 -42340628#1 -792659379 778096183 1196696798 1196696799 777538772 777538774 814268085 769716782 1196694173 42340610 1196694167 186938889 186938890 549118393#0 549118396 549118397 1062301256 1148646859 974006868#0 974006868#1 974006868#2 974006867 -42336836 -1132700068 1062682404 962307427 -288875956 -1073046199 288875955#0 237382742#0 549008074 549008071 319023556 549008078"/>
    </vehicle>
    <vehicle id="truck51" type="truck_truck" depart="703.39" departLane="best">
        <route edges="549008065 288875956 549118404 962307428 194296246 -39122228"/>
    </vehicle>
    <vehicle id="truck52" type="truck_truck" depart="717.18" departLane="best">
        <route edges="237264805#1 -319023527 -42340628#1 -792659379 778096183 1196696798 1196696799 777538772 777538774 814268085 769716782 1196694173 42340610 1196694167 186938889 186938890 549118393#0 549118396 549118397 1062301256 1148646859 974006868#0 1134433961 1223056399 319023546#1"/>
    </vehicle>
    <vehicle id="truck53" type="truck_truck" depart="730.97" departLane="best">
        <route edges="-549008074 -237382742#2 42336835#0 549118408 549008065 288875956 549118404 962307428 194296246 1132700068 1149133719 974006864 1148646857 777538770 411763917 42340609 1196694169 194355534 769716780 720901625 248975819 1196696794 1196696795 1196696796 1196696797 1196696798 1196696799 777538772 777538774"/>
    </vehicle>
    <vehicle id="truck54" type="truck_truck" depart="744.76" departLane="best">
        <route edges="1134433961 709217977 974006868#2 1148646858 1148646857 777538770 411763917 42340609 1196694169 194355534 769716780 720901625 248975819 1196696794 778096184 -549008035"/>
    </vehicle>
    <vehicle id="truck55" type="truck_truck" depart="758.56" departLane="best">
        <route edges="319023535#1 549008039#0 777538793 1196694181 777538789 1237762219 777538785 1196694186 777538787 39122228 1062682404 962307427 -288875956 -1073046199 288875955#0 288875954#0 -549008063"/>
    </vehicle>
    <vehicle id="truck56" type="truck_truck" depart="772.35" departLane="best">
        <route edges="974006865 331657131 1202362037 -1202362037 -331657131 1236950840 974006868#0 974006868#1 974006868#2 974006867 -42336836 -1132700068 1062682404 962307427 -288875956 -1073046199 288875955#0 549008070 411763899#0 549008066 438404111 549008043#0 42340648"/>
    </vehicle>
    <vehicle id="truck57" type="truck_truck" depart="786.14" departLane="best">
        <route edges="1236950840 974006868#0 974006868#1 974006868#2 1148646858 1148646857 777538770 411763917 42340609 1196694169 194355534 769716780 720901625 248975819 1196696794 1196696795 1196696796 778096182 791651315 42340628#1 319023527"/>
    </vehicle>
    <vehicle id="truck58" type="truck_truck" depart="799.93" departLane="best">
        <route edges="-331657131 1236950840 974006868#0 974006868#1 974006868#2 974006867 -42336836 -1132700068 -39122228 777538786 1196694183 777538784 -974646436 777538788 1196694175 777538792 -549008039#1 -319023535#2 -319023535#0 -549118422 -42340641#1 -319023542#1 -549008000 -549008043#2"/>
    </vehicle>
    <vehicle id="truck59" type="truck_truck" depart="813.72" departLane="best">
        <route edges="1237762219 777538785 1196694186 777538787 39122228 1062682404 962307427 -288875956 -1073046199 288875955#0 549008070 411763899#0"/>
    </vehicle>
    <vehicle id="truck60" type="truck_truck" depart="827.51" departLane="best">
        <route edges="1152230292 549008046#0 549008043#0 42340648 319023542#0 42340641#0 549118422 319023535#0 319023535#1 549008039#0"/>
    </vehicle>
    <vehicle id="truck61" type="truck_truck" depart="841.31" departLane="best">
        <route edges="1152230292 549008046#0 549008043#0 42340648 319023542#0 42340641#0 549118422 319023535#0 319023535#1 549008039#0 777538793"/>
    </vehicle>
    <vehicle id="truck62" type="truck_truck" depart="855.10" departLane="best" departSpeed="max">
        <route edges="-1132700068 1062682404 962307427 -288875956 -1073046199 288875955#0 288875954#0 -549008063 1078784919 1078784920 1078784922 1046107949 1078784924#0 -549008056 -1046109807 549008057 549008055 549008052 549008051 1263276573 1046109808 -249826562"/>
    </vehicle>
    <vehicle id="truck63" type="truck_truck" depart="868.89" departLane="best">
        <route edges="549008056 1046109806#0 549008060 549008059 549008062 549008063 288875953#0 42336835#0 549118408 549008065 288875956 549118404 962307428 194296246 -39122228 777538786 1196694183 777538784 -974646436 777538788 1196694175 777538792 -549008039#1 42340613#0 549008036"/>
    </vehicle>
    <vehicle id="truck64" type="truck_truck" depart="882.68" departLane="best">
        <route edges="-549008036 -249487869 237264805#1 -319023527 -42340628#1 -792659379 778096183 1196696798 1196696799 777538772 777538774 814268085 769716782 1196694173 42340610 1196694167 186938889 186938890 549118393#0 549118396 549118397 1062301256 1148646859 974006868#0 974006868#1 974006868#2 974006867 -42336836"/>
    </vehicle>
    <vehicle id="truck65" type="truck_truck" depart="896.47" departLane="best">
        <route edges="777538793 1196694181 777538789 1237762219 777538785 1196694186 777538787 39122228 1062682404 962307427 -288875956 -1073046199 288875955#0 237382742#0 549008074 549008071 319023556"/>
    </vehicle>
    <vehicle id="truck66" type="truck_truck" depart="910.27" departLane="best">
        <route edges="237264805#1 -319023527 -42340628#1 -792659379 778096183 1196696798 1196696799 777538772 777538774 814268085 769716782 1196694173 42340610 1196694167 186938889 186938890 549118393#0 549118396 549118397 1062301256 1148646859 974006868#0 974006868#1 974006868#2 974006867 -42336836 -1132700068 1062682404 962307427 -288875956 -1073046199 288875955#0 237382742#0 549008074 549008071 319023556 549008078 549008079 549008081 549008080 549008084"/>
    </vehicle>
    <vehicle id="truck67" type="truck_truck" depart="924.06" departLane="best">
        <route edges="-549008083#0 -549008084 -549008080 -549008081 -549008079 -549008078 -237382756 -549008071 -549008074 -237382742#2 42336835#0 549118408 549008065 288875956 549118404 962307428 194296246 -39122228 777538786 1196694183 777538784 -974646436 777538788 1196694175 777538792 -549008039#1 -319023535#2 -319023535#0 -549118422 -42340641#1"/>
    </vehicle>
    <vehicle id="truck68" type="truck_truck" depart="937.85" departLane="best" departSpeed="max">
        <route edges="-319023546#1 -319023546#0 -319023554 -549008085 709217977 974006868#2 1148646858 1148646857 1148646856 1062301256 974006865 331657131 1202362037"/>
    </vehicle>
    <vehicle id="truck69" type="truck_truck" depart="951.64" departLane="best">
        <route edges="549008055 549008052 549008051 1263276573 1046109808 -249826562 249826562 1078784913 1078784916 1046100143 1078784918 1078784915 1046109807 549008056 1046109806#0 549008060 549008059 549008062 549008063 288875953#0 549008070 411763899#0 549008066 438404111 549008043#0 42340648 319023542#0 42340641#0 549118422 319023535#0 319023535#1 549008039#0"/>
    </vehicle>
    <vehicle id="truck70" type="truck_truck" depart="965.43" departLane="best">
        <route edges="962307428 194296246 -39122228 777538786 1196694183 777538784 -974646436 777538788 1196694175 777538792 -549008039#1 -319023535#2 -319023535#0"/>
    </vehicle>
    <vehicle id="truck71" type="truck_truck" depart="979.23" departLane="best" departSpeed="max">
        <route edges="-1132700068 1062682404 962307427 -288875956 -1073046199 288875955#0 288875954#0 -549008063"/>
    </vehicle>
    <vehicle id="truck72" type="truck_truck" depart="993.02" departLane="best" departSpeed="max">
        <route edges="-42340647 -42340642#1 42340641#0 549118422 319023535#0 319023535#1 42340613#0 549008036 549008035 778096185 1196696796 1196696797 1196696798 1196696799 777538772 777538774 814268085 769716782 1196694173 42340610 1196694167 186938889 186938890 549118393#0 549118396 549118397 1062301256 1148646859 974006868#0 1134433961 1223056399"/>
    </vehicle>
    <vehicle id="truck73" type="truck_truck" depart="1006.81" departLane="best">
        <route edges="1134433961 -549008083#0 -549008084 -549008080 -549008081 -549008079"/>
    </vehicle>
    <vehicle id="truck74" type="truck_truck" depart="1020.60" departLane="best">
        <route edges="-549008067 -549008070 42336835#0 549118408 549008065 288875956 549118404 962307428 194296246 1132700068 1149133719 974006864 1148646857 777538770 411763917 42340609 1196694169 194355534 769716780 720901625 248975819 1196696794 778096184"/>
    </vehicle>
    <vehicle id="truck75" type="truck_truck" depart="1034.39" departLane="best">
        <route edges="-319023546#0 -319023554 -549008085 -549008083#0 -549008084 -549008080 -549008081 -549008079 -549008078 -237382756 -549008071 -549008074 -237382742#2"/>
    </vehicle>
    <vehicle id="truck76" type="truck_truck" depart="1048.19" departLane="best">
        <route edges="974006867 -42336836 -1132700068 -39122228 777538786 1196694183 777538784 -974646436 777538788 1196694175 777538792 -549008039#1 -319023535#2 -319023535#0 -549118422 -42340641#1 42340642#0 549118415"/>
    </vehicle>
    <vehicle id="truck77" type="truck_truck" depart="1061.98" departLane="best">
        <route edges="709217977 974006868#2 1148646858 1148646857 777538770 411763917 42340609 1196694169 194355534 769716780 720901625 248975819 1196696794 1196696795 1196696796 778096182 791651315 -42340628#0"/>
    </vehicle>
    <vehicle id="truck78" type="truck_truck" depart="1075.77" departLane="best">
        <route edges="1078784920 549008062 549008063 288875953#0 42336835#0 549118408 549008065 288875956 549118404 962307428 194296246 1132700068 1149133719 974006864 1148646857 777538770 411763917 42340609 1196694169 194355534 769716780 720901625 248975819 1196696794 778096184 -549008035 -549008036 -249487869"/>
    </vehicle>
    <vehicle id="truck79" type="truck_truck" depart="1089.56" departLane="best">
        <route edges="1078784913 1078784916 1046100143 1078784918 1078784915 1046109807 549008056 1046109806#0 549008060 549008059 549008062 549008063 288875953#0 42336835#0 549118408 549008065 288875956 549118404 962307428"/>
    </vehicle>
    <vehicle id="truck80" type="truck_truck" depart="1103.35" departLane="best">
        <route edges="186938889 186938890 549118393#0 549118396 549118397 1062301256 974006865 331657131 1202362037"/>
    </vehicle>
    <vehicle id="truck81" type="truck_truck" depart="1117.14" departLane="best">