<?xml version="1.0" encoding="UTF-8"?>

<!-- generated on 2024-04-14 22:24:40 by Eclipse SUMO netedit Version 1.19.0
-->

<additional xmlns:xsi="http://www.w3.org/2001/XMLSchema-instance" xsi:noNamespaceSchemaLocation="http://sumo.dlr.de/xsd/additional_file.xsd">
    <!-- Shapes -->
    <poly id="1016742377" type="landuse.grass" color="194,194,130" fill="1" layer="-3.00" shape="1348.734451,386.265528 1332.038200,375.889531 1333.820083,373.971488 1348.417236,381.345080 1356.069858,384.641682 1356.918740,386.205208 1357.041027,390.308444 1348.734451,386.265528"/>
    <poly id="1016742378" type="landuse.grass" color="194,194,130" fill="1" layer="-3.00" shape="1363.102146,393.257198 1364.849391,390.716987 1366.657080,391.680998 1372.721883,394.740950 1372.200523,395.882482 1375.909965,397.696077 1376.397887,396.600179 1384.271806,400.457148 1385.062070,400.887274 1384.529916,403.598618 1370.249402,396.704174 1363.102146,393.257198"/>
    <poly id="1016742379" type="landuse.grass" color="194,194,130" fill="1" layer="-3.00" shape="1391.505824,406.728516 1392.831749,403.289571 1399.897970,405.770890 1435.305913,421.759217 1434.879751,423.031152 1439.776255,432.597002 1431.829023,424.212118 1391.505824,406.728516"/>
    <poly id="1016742380" type="landuse.grass" color="194,194,130" fill="1" layer="-3.00" shape="1438.368274,424.930040 1440.042700,421.880252 1444.336521,424.030685 1444.924325,424.890513 1445.585340,426.271062 1446.812984,429.558445 1447.974914,433.393423 1448.625088,436.132300 1448.849429,437.204548 1448.001329,438.401441 1446.776143,439.610851 1438.368274,424.930040"/>
    <poly id="1016742381" type="landuse.grass" color="194,194,130" fill="1" layer="-3.00" shape="1463.021228,451.783112 1470.693896,438.627777 1465.278378,436.380982 1462.786837,436.085225 1460.652313,436.857316 1459.312188,438.816306 1458.496561,440.991636 1459.925087,445.908593 1463.021228,451.783112"/>
    <poly id="1016742382" type="landuse.grass" color="194,194,130" fill="1" layer="-3.00" shape="1434.385931,405.627720 1439.245412,410.497568 1463.145813,421.625435 1464.527559,420.288393 1434.385931,405.627720"/>
    <poly id="1016742383" type="landuse.grass" color="194,194,130" fill="1" layer="-3.00" shape="1327.079328,357.087204 1327.859631,352.586668 1354.382403,364.984922 1384.640579,379.140391 1391.350077,379.930520 1389.558094,385.755817 1395.741203,388.589250 1395.119489,389.656196 1376.127219,380.870096 1355.881810,371.190685 1335.751712,361.407342 1327.079328,357.087204"/>
    <poly id="1016742390" type="landuse.grass" color="194,194,130" fill="1" layer="-3.00" shape="1252.312357,346.169574 1251.945206,342.063341 1267.473366,341.892422 1283.532489,349.707022 1287.734217,352.027353 1289.089539,353.262378 1289.763796,354.408721 1290.070231,356.057044 1290.015386,357.773024 1289.772399,359.717872 1289.323242,361.769748 1288.375642,365.652520 1287.891575,372.124521 1282.389643,372.752553 1282.090142,355.531877 1266.825244,345.320011 1252.312357,346.169574"/>
    <poly id="1016742391" type="landuse.grass" color="194,194,130" fill="1" layer="-3.00" shape="1296.102292,373.910956 1300.681740,373.502810 1298.426819,364.127592 1297.464563,366.096335 1296.711942,368.904062 1296.308446,371.488703 1296.102292,373.910956"/>
    <poly id="1016742392" type="landuse.grass" color="194,194,130" fill="1" layer="-3.00" shape="1305.614125,456.319768 1301.735607,456.571057 1301.900896,458.179546 1302.513065,459.561701 1303.123651,460.264925 1304.382922,460.924337 1306.059663,461.313870 1305.614125,456.319768"/>
    <poly id="1016742393" type="landuse.grass" color="194,194,130" fill="1" layer="-3.00" shape="1300.639919,471.567381 1300.675396,470.531029 1301.576402,469.454792 1302.549455,468.442947 1303.507469,467.609696 1304.197278,467.330769 1300.639919,471.567381"/>
    <poly id="1016742394" type="landuse.grass" color="194,194,130" fill="1" layer="-3.00" shape="1350.162789,426.957143 1328.463639,456.851924 1313.775879,456.215598 1316.251786,434.995785 1328.176472,373.491087 1329.237242,371.541340 1307.279941,361.050765 1304.604606,360.905890 1303.031277,361.525832 1301.186781,362.611149 1300.638343,364.410312 1301.652973,368.016407 1302.823923,372.329687 1303.220464,374.375729 1304.703024,400.695564 1306.766431,434.609636 1308.277758,461.585241 1333.921342,462.892810 1339.061169,457.679798 1351.676058,458.418431 1350.162789,426.957143"/>
    <poly id="1016742395" type="natural.scrub" color="140,196,107" fill="1" layer="-4.00" shape="1350.162789,426.957143 1328.463639,456.851924 1313.775879,456.215598 1316.251786,434.995785 1328.176472,373.491087 1332.038200,375.889531 1348.734451,386.265528 1350.162789,426.957143"/>
    <poly id="1016742396" type="landuse.grass" color="194,194,130" fill="1" layer="-3.00" shape="1289.721563,457.715966 1293.827530,457.156578 1294.208371,464.200913 1294.018969,465.654222 1293.326212,470.263167 1288.943270,469.429266 1289.792832,464.069340 1289.721563,457.715966"/>
    <poly id="1016742397" type="landuse.grass" color="194,194,130" fill="1" layer="-3.00" shape="1282.495432,506.809563 1286.359351,507.382429 1285.875955,511.138472 1286.036554,513.236876 1286.228887,516.079996 1281.873356,516.280365 1281.635798,513.338570 1281.806505,510.060414 1282.495432,506.809563"/>
    <poly id="1016742398" type="landuse.grass" color="194,194,130" fill="1" layer="-3.00" shape="1284.043461,547.719837 1287.742570,547.541277 1286.281875,548.814208 1284.268457,550.283599 1284.043461,547.719837"/>
    <poly id="1016742399" type="landuse.grass" color="194,194,130" fill="1" layer="-3.00" shape="1286.623222,559.087817 1290.362121,557.371873 1289.668415,556.270701 1288.577530,555.839448 1287.357698,555.735275 1286.181611,555.685304 1285.167682,556.097443 1286.623222,559.087817"/>
    <poly id="1016742400" type="landuse.grass" color="194,194,130" fill="1" layer="-3.00" shape="1320.197120,627.206588 1323.650386,625.310929 1325.106960,628.123183 1326.171352,630.703586 1326.894427,633.952050 1323.186391,635.333018 1322.344675,632.511470 1321.563323,630.244461 1320.197120,627.206588"/>
    <poly id="1016742401" type="landuse.grass" color="194,194,130" fill="1" layer="-3.00" shape="1335.807047,680.873252 1339.905786,679.891156 1340.592690,682.261482 1336.505368,683.376769 1335.807047,680.873252"/>
    <poly id="1016742402" type="landuse.grass" color="194,194,130" fill="1" layer="-3.00" shape="1336.438353,689.356286 1339.691550,700.379121 1343.174159,711.995405 1345.149619,719.276179 1341.602348,721.286258 1333.996679,689.927152 1336.438353,689.356286"/>
    <poly id="1016742403" type="landuse.grass" color="194,194,130" fill="1" layer="-3.00" shape="1354.211982,750.508998 1357.107351,760.441767 1352.014391,762.636750 1349.230564,751.642843 1354.211982,750.508998"/>
    <poly id="1016742404" type="landuse.grass" color="194,194,130" fill="1" layer="-3.00" shape="1353.364706,767.723243 1358.880550,767.105933 1359.906936,771.279321 1359.581205,772.837334 1358.927996,774.216999 1357.286209,775.718546 1351.123523,780.642738 1346.961996,783.730654 1348.157406,785.416236 1334.699497,795.680724 1328.251643,800.436325 1319.495449,804.934694 1309.495524,808.817677 1289.038672,815.240918 1278.912545,818.059590 1272.395411,819.255677 1267.021089,819.712547 1253.787865,819.272991 1246.650126,819.042719 1236.762733,818.948373 1233.852754,806.689785 1248.995272,809.470111 1272.633130,812.736197 1306.762873,805.257530 1325.437478,795.053409 1354.307572,771.276074 1353.364706,767.723243"/>
    <poly id="1016742405" type="landuse.grass" color="194,194,130" fill="1" layer="-3.00" shape="1504.253970,704.198685 1504.391826,707.299625 1493.346677,710.660374 1473.084945,715.818583 1439.803846,721.509246 1398.612018,728.954342 1370.095363,733.919586 1365.257072,731.575822 1383.089377,728.623856 1439.992044,719.176644 1476.547874,712.108372 1504.253970,704.198685"/>
    <poly id="1016742406" type="landuse.grass" color="194,194,130" fill="1" layer="-3.00" shape="1511.864338,703.500908 1510.314160,700.602666 1512.775576,699.151891 1565.119155,669.421105 1566.414980,672.238752 1536.796487,689.305461 1517.749993,700.122176 1511.864338,703.500908"/>
    <poly id="1016742407" type="amenity.parcel_locker" color="237,199,199" fill="1" layer="-1.00" shape="1514.779924,670.022666 1531.040087,662.659917 1532.144024,664.960773 1515.699364,672.240594 1514.779924,670.022666"/>
    <poly id="1017117509" type="building.farm_auxiliary" color="255,230,230" fill="1" layer="-1.00" shape="2100.710415,1256.152059 2100.092259,1253.311884 2131.971741,1246.335993 2133.714801,1254.236885 2131.972995,1254.617277 2130.944356,1249.931827 2128.224343,1250.533792 2128.783315,1253.064264 2120.899988,1254.783100 2120.258691,1251.876903 2100.710415,1256.152059"/>
    <poly id="1017117510" type="amenity.parking" color="184,184,179" fill="1" layer="-1.00" shape="1927.188417,908.044890 1925.458897,899.509143 1926.112047,894.534301 1927.529610,889.845817 1932.885618,884.403631 1936.974962,880.817705 1942.490826,904.911458 1927.188417,908.044890"/>
    <poly id="1027411530" type="landuse.meadow" color="194,194,130" fill="1" layer="-3.00" shape="2720.734070,1992.273357 2741.121192,1980.448391 2771.577683,1962.648411 2789.206773,1951.315237 2785.426240,1945.384669 2789.850237,1942.634312 2793.615726,1948.320502 2813.854193,1934.730953 2803.292069,1919.173066 2791.299670,1901.992708 2772.425058,1922.616560 2745.870813,1885.791735 2741.653874,1869.590757 2690.009320,1801.380702 2679.998470,1780.940722 2681.099172,1810.300776 2710.032019,1946.823038 2720.734070,1992.273357"/>
    <poly id="1027432673" type="landuse.grass" color="194,194,130" fill="1" layer="-3.00" shape="2732.488120,1202.470808 2730.604141,1201.931827 2730.290676,1183.509645 2730.309267,1181.316276 2730.932996,1172.669399 2731.205195,1166.293645 2731.295736,1161.192782 2731.215558,1154.516978 2731.155834,1149.098275 2730.585939,1141.136311 2730.568135,1139.111103 2730.975140,1137.038505 2731.649233,1135.647212 2732.870127,1134.304687 2734.149789,1133.260756 2735.750240,1132.406608 2738.399407,1132.196882 2736.079171,1153.844708 2735.934626,1162.397881 2735.869884,1174.009377 2734.930342,1184.102526 2734.304299,1190.133755 2732.488120,1202.470808"/>
    <poly id="1027432674" type="landuse.grass" color="194,194,130" fill="1" layer="-3.00" shape="2692.118815,1261.502962 2693.568064,1257.971272 2696.947914,1259.362528 2695.908649,1260.064625 2695.127368,1260.535605 2694.245408,1260.920857 2693.215729,1261.277586 2692.118815,1261.502962"/>
    <poly id="1027432675" type="landuse.grass" color="194,194,130" fill="1" layer="-3.00" shape="2712.333403,1275.529331 2711.033017,1274.670596 2710.013758,1273.646765 2709.183030,1272.405237 2708.453366,1271.049071 2708.022844,1269.438171 2707.893644,1267.850732 2708.106577,1266.040533 2708.644323,1264.542422 2710.946038,1265.668688 2711.883348,1266.750873 2712.534744,1268.065096 2712.947250,1269.765636 2713.078648,1271.419787 2713.048708,1273.268478 2712.333403,1275.529331"/>
    <poly id="1027432676" type="landuse.grass" color="194,194,130" fill="1" layer="-3.00" shape="2681.955130,1285.012181 2682.153791,1286.586199 2682.226082,1287.719153 2682.167184,1288.900954 2682.009805,1290.063739 2681.713523,1291.253365 2681.320593,1292.479568 2678.210812,1299.917238 2671.252872,1316.775936 2668.890581,1323.777135 2666.120993,1332.628336 2665.207644,1335.029295 2664.109470,1337.336170 2661.991444,1341.357410 2658.682937,1339.796866 2662.935659,1330.139876 2666.497858,1321.373852 2669.249225,1315.150110 2672.958084,1306.167773 2681.955130,1285.012181"/>
    <poly id="1027432677" type="landuse.grass" color="194,194,130" fill="1" layer="-3.00" shape="2710.391646,1260.511161 2712.324074,1261.460375 2713.674882,1261.516036 2714.419403,1261.202101 2715.139334,1260.566184 2715.947506,1259.426477 2718.829898,1252.085374 2721.370143,1245.178517 2722.897766,1240.842841 2725.540678,1232.596914 2712.263201,1256.219799 2711.460853,1257.960376 2710.391646,1260.511161"/>
    <poly id="1027432678" type="landuse.grass" color="194,194,130" fill="1" layer="-3.00" shape="2717.008746,1175.398903 2717.946426,1191.763589 2717.879027,1193.324114 2716.539070,1202.506612 2714.553397,1212.456150 2712.749466,1220.284857 2710.099911,1228.965109 2708.382909,1234.765159 2705.175141,1243.897910 2702.036185,1252.149067 2700.982490,1253.897929 2701.329002,1254.020078 2700.010687,1256.222891 2698.401970,1255.552412 2698.063212,1255.029301 2703.161874,1242.828924 2707.001293,1233.987016 2709.125060,1228.440699 2711.825667,1220.037032 2713.861854,1212.044840 2715.218759,1202.316376 2715.799527,1193.003065 2716.425081,1184.200294 2717.008746,1175.398903"/>
    <poly id="1027432679" type="landuse.grass" color="194,194,130" fill="1" layer="-3.00" shape="2718.920576,1146.663106 2717.057827,1146.769012 2716.100563,1116.447020 2716.999791,1116.372865 2717.897009,1125.570685 2719.607252,1140.563093 2719.579013,1143.736285 2718.920576,1146.663106"/>
    <poly id="1027432680" type="landuse.grass" color="194,194,130" fill="1" layer="-3.00" shape="2657.644363,662.380427 2655.127258,654.727526 2656.948616,655.057070 2660.051709,656.947197 2661.771915,662.055164 2657.644363,662.380427"/>
    <poly id="1027432681" type="landuse.grass" color="194,194,130" fill="1" layer="-3.00" shape="2653.309561,646.661997 2655.008710,645.192389 2656.540185,640.756400 2655.732127,635.751939 2654.715892,632.490735 2652.212719,632.896031 2653.085468,641.771857 2653.309561,646.661997"/>
    <poly id="1027432682" type="landuse.grass" color="194,194,130" fill="1" layer="-3.00" shape="2650.880947,627.908832 2653.005219,627.460371 2647.624101,611.386854 2645.216000,608.950681 2644.632028,608.836361 2647.915998,618.333946 2650.880947,627.908832"/>
    <poly id="1027432683" type="landuse.grass" color="194,194,130" fill="1" layer="-3.00" shape="2638.951802,595.778011 2639.523450,594.033903 2639.690460,592.314264 2639.573778,590.258923 2634.055653,580.634633 2627.511836,570.220484 2623.763279,564.656245 2622.890110,564.039447 2621.852358,562.671183 2621.453329,561.593524 2617.913748,557.491658 2613.330469,552.689573 2609.692749,548.579816 2608.356817,548.557075 2607.859144,549.152281 2612.271891,554.082422 2617.286054,561.352457 2623.057172,569.955494 2629.243502,579.279479 2633.818432,586.586268 2638.951802,595.778011"/>
    <poly id="1027432684" type="landuse.grass" color="194,194,130" fill="1" layer="-3.00" shape="2601.360333,544.346572 2603.804878,542.373752 2602.814880,541.182009 2601.992418,540.619195 2601.087626,540.103619 2599.952765,539.606759 2598.907931,539.296154 2597.839197,539.108775 2596.829626,539.019622 2595.772640,538.976556 2594.327178,539.024213 2593.315389,539.079834 2592.085664,539.098118 2591.048161,539.009887 2589.607133,538.768001 2588.389925,538.529865 2587.250994,538.333672 2586.035985,538.162249 2584.845591,538.101323 2583.645630,538.174281 2582.479100,538.413098 2581.490809,538.757346 2580.406958,539.171529 2579.678467,539.974702 2579.025356,540.307899 2578.829118,540.080624 2577.695253,540.886033 2582.105133,540.851931 2586.133520,540.908328 2589.409970,540.844820 2592.018976,541.103851 2595.576137,541.921551 2598.199054,542.814579 2601.360333,544.346572"/>
    <poly id="1027432685" type="landuse.grass" color="194,194,130" fill="1" layer="-3.00" shape="2611.163581,531.490159 2610.657256,530.126639 2610.251642,528.637361 2610.056249,527.163414 2610.087298,525.136595 2610.300599,523.548997 2610.761986,521.853044 2611.449394,520.227556 2612.327522,518.874048 2613.277661,517.796435 2614.186983,516.965045 2615.190017,516.219611 2613.128473,534.263722 2611.846697,532.703151 2611.163581,531.490159"/>
    <poly id="1027432686" type="landuse.grass" color="194,194,130" fill="1" layer="-3.00" shape="2585.158279,498.821742 2591.152436,500.616510 2595.564076,501.906922 2595.330634,502.671509 2594.022899,503.716393 2591.637347,503.238508 2590.213225,502.873625 2588.813736,502.407754 2587.722247,501.742505 2586.489284,500.814783 2585.379080,499.793967 2584.454466,498.889471 2585.158279,498.821742"/>
    <poly id="1027432687" type="landuse.grass" color="194,194,130" fill="1" layer="-3.00" shape="2570.690567,533.036086 2570.339590,528.328223 2570.491468,522.546356 2570.769840,515.936644 2571.003135,507.747852 2571.263371,507.371956 2574.690705,505.099577 2575.126513,506.020189 2575.547588,507.341994 2576.109719,509.549608 2576.359519,510.977237 2576.270105,512.293614 2575.974050,514.763271 2575.649382,516.577157 2575.218119,518.550389 2575.005145,520.783561 2574.955694,523.311872 2574.962839,525.860577 2574.873076,526.954350 2574.540395,527.889172 2573.639845,529.410387 2572.491212,531.039960 2570.690567,533.036086"/>
    <poly id="1027432688" type="landuse.grass" color="194,194,130" fill="1" layer="-3.00" shape="2599.165913,504.927041 2598.479858,503.625101 2598.674702,502.961963 2606.245768,506.151755 2604.989936,506.226550 2603.521335,505.996699 2601.487132,505.574011 2599.165913,504.927041"/>
    <poly id="1027432689" type="landuse.grass" color="194,194,130" fill="1" layer="-3.00" shape="2618.695456,540.914474 2618.791845,539.809353 2619.252021,539.348954 2623.597116,544.559603 2627.541650,549.282576 2632.366967,555.701784 2635.489376,560.084548 2637.078694,562.280570 2635.555655,562.731480 2632.625064,558.654053 2632.159526,557.467279 2631.102679,555.943812 2630.241276,555.259840 2625.594541,549.168670 2622.521674,545.440991 2618.695456,540.914474"/>
    <poly id="1027432690" type="landuse.grass" color="194,194,130" fill="1" layer="-3.00" shape="2639.331013,568.472935 2640.282286,567.005713 2642.395564,570.464501 2644.347153,573.683742 2646.025715,576.466753 2649.691832,582.924183 2651.612876,586.489486 2654.884237,593.271591 2657.020196,597.631226 2660.677228,606.571116 2662.766415,611.845015 2667.085818,623.278626 2666.673426,623.704054 2666.041269,624.036549 2665.917818,623.684434 2666.190168,623.463974 2665.324077,622.000999 2663.318344,616.501735 2662.039369,612.904136 2660.326420,608.652996 2657.131213,601.211665 2654.569403,595.808646 2651.411948,589.301055 2649.092961,584.902932 2646.397303,580.105388 2644.149931,576.183528 2641.114689,571.263611 2639.331013,568.472935"/>
    <poly id="1027432691" type="landuse.grass" color="194,194,130" fill="1" layer="-3.00" shape="2660.338507,667.133502 2662.534404,666.949821 2663.952600,674.983996 2667.758485,698.622690 2668.689509,705.025573 2669.937766,714.478955 2670.011788,716.724924 2669.088937,717.144915 2667.849473,707.958382 2666.440384,697.018783 2665.228192,686.963153 2663.859104,680.418878 2660.338507,667.133502"/>
    <poly id="1027432692" type="landuse.grass" color="194,194,130" fill="1" layer="-3.00" shape="2675.875703,664.094757 2676.923459,664.282842 2679.350252,689.347202 2679.895361,695.918635 2680.680404,702.983044 2680.848369,706.594998 2680.255188,706.837162 2679.715978,703.838502 2678.939692,693.646067 2677.747110,682.487847 2676.565094,668.468679 2675.875703,664.094757"/>
    <poly id="1027432693" type="landuse.grass" color="194,194,130" fill="1" layer="-3.00" shape="2661.429528,719.111493 2663.979665,719.071966 2663.158894,712.620927 2662.256607,705.393422 2658.921412,706.004232 2659.333291,707.048077 2659.740673,709.015921 2661.429528,719.111493"/>
    <poly id="1027432695" type="landuse.grass" color="194,194,130" fill="1" layer="-3.00" shape="2662.147126,724.553036 2661.429528,719.111493 2659.740673,709.015921 2661.804917,725.198767 2662.378603,729.031095 2663.176694,734.369808 2664.325182,741.856335 2664.651681,744.127376 2667.329712,743.938935 2666.288753,734.200453 2663.435052,734.361292 2662.727369,729.008469 2665.183063,728.860747 2664.759006,724.478081 2662.147126,724.553036"/>
    <poly id="1027432696" type="landuse.grass" color="194,194,130" fill="1" layer="-3.00" shape="2668.801933,771.216382 2671.087439,771.207840 2668.018760,748.090253 2665.302847,748.613865 2667.847322,765.582297 2668.801933,771.216382"/>
    <poly id="1027432697" type="landuse.grass" color="194,194,130" fill="1" layer="-3.00" shape="2677.880268,853.240142 2681.752246,853.012355 2681.351027,852.079465 2680.477235,846.988122 2676.969075,847.226180 2677.880268,853.240142"/>
    <poly id="1027432698" type="landuse.grass" color="194,194,130" fill="1" layer="-3.00" shape="2676.112601,841.599990 2678.830644,841.354580 2678.592155,837.299719 2676.817841,833.729574 2675.425818,833.063085 2674.819805,833.127581 2676.112601,841.599990"/>
    <poly id="1027432699" type="landuse.grass" color="194,194,130" fill="1" layer="-3.00" shape="2684.031523,837.120455 2685.574656,837.069599 2684.557450,832.929095 2683.350046,830.865176 2681.768863,829.125237 2680.023051,827.268286 2678.035801,825.296854 2678.297597,827.725859 2680.558996,829.743909 2682.435236,831.952745 2683.485320,834.333509 2684.031523,837.120455"/>
    <poly id="1027432700" type="landuse.grass" color="194,194,130" fill="1" layer="-3.00" shape="2686.699526,852.749134 2685.592060,850.960190 2684.998976,846.538571 2686.465645,846.712850 2687.143840,852.656576 2686.699526,852.749134"/>
    <poly id="1027432701" type="landuse.grass" color="194,194,130" fill="1" layer="-3.00" shape="2684.737586,905.206193 2686.663285,904.886721 2686.369162,894.689524 2686.467831,892.805177 2683.278308,893.166300 2684.737586,905.206193"/>
    <poly id="1027432702" type="landuse.grass" color="194,194,130" fill="1" layer="-3.00" shape="2711.212101,1119.123660 2711.102463,1120.462962 2710.610295,1121.647909 2709.673491,1122.702809 2708.694102,1123.313883 2707.187045,1123.608424 2705.516876,1123.407457 2703.490638,1123.006741 2703.767619,1120.170404 2704.794357,1120.147698 2711.118138,1117.969159 2711.212101,1119.123660"/>
    <poly id="1027432703" type="landuse.grass" color="194,194,130" fill="1" layer="-3.00" shape="2710.972752,1147.069715 2711.970456,1147.014575 2711.517559,1133.483384 2711.422375,1129.746591 2711.340911,1128.547155 2710.571903,1127.270200 2709.048053,1126.418827 2707.017054,1125.873567 2705.110246,1125.491176 2704.649958,1127.643448 2706.954012,1127.990486 2709.376457,1131.505886 2710.972752,1147.069715"/>
    <poly id="1027432704" type="landuse.grass" color="194,194,130" fill="1" layer="-3.00" shape="2714.400175,1105.784148 2714.780461,1110.112606 2714.631045,1112.365940 2716.385411,1112.152298 2715.454173,1105.103832 2714.291649,1095.703271 2712.388513,1080.160684 2710.916449,1068.154600 2710.687708,1066.091819 2709.748839,1065.599614 2710.661113,1075.041813 2712.560612,1090.261728 2713.478929,1097.978463 2714.400175,1105.784148"/>
    <poly id="1027432705" type="landuse.grass" color="194,194,130" fill="1" layer="-3.00" shape="2708.809037,1059.564329 2706.611367,1041.872086 2707.656848,1041.993463 2709.972215,1058.591015 2708.809037,1059.564329"/>
    <poly id="1027432706" type="landuse.grass" color="194,194,130" fill="1" layer="-3.00" shape="2705.318503,1031.062217 2704.862136,1026.758528 2705.708412,1027.198131 2706.238733,1030.564400 2705.318503,1031.062217"/>
    <poly id="1027432707" type="landuse.grass" color="194,194,130" fill="1" layer="-3.00" shape="2703.983334,1020.665580 2700.840737,996.359425 2702.112551,996.985357 2705.034825,1019.484462 2703.983334,1020.665580"/>
    <poly id="1027432708" type="landuse.grass" color="194,194,130" fill="1" layer="-3.00" shape="2700.177993,990.459711 2698.096154,971.617186 2699.469410,972.139599 2701.449218,989.583012 2700.177993,990.459711"/>
    <poly id="1027432709" type="landuse.grass" color="194,194,130" fill="1" layer="-3.00" shape="2697.036817,966.409517 2696.250951,956.773932 2697.374293,957.560587 2698.315031,965.532588 2697.036817,966.409517"/>
    <poly id="1027432710" type="landuse.grass" color="194,194,130" fill="1" layer="-3.00" shape="2695.473205,950.566347 2692.865674,921.923835 2693.982407,922.721838 2696.595959,949.850371 2695.473205,950.566347"/>
    <poly id="1027432711" type="landuse.grass" color="194,194,130" fill="1" layer="-3.00" shape="2691.997110,916.142211 2691.499691,910.593233 2692.538603,910.514473 2693.166916,915.369031 2691.997110,916.142211"/>
    <poly id="1027432712" type="landuse.grass" color="194,194,130" fill="1" layer="-3.00" shape="2691.010496,903.596988 2690.908001,895.608494 2691.419570,895.435804 2691.993571,903.308583 2691.010496,903.596988"/>
    <poly id="1027432713" type="landuse.grass" color="194,194,130" fill="1" layer="-3.00" shape="2670.590498,814.878986 2670.474905,813.068485 2674.261311,812.576377 2676.046009,811.371091 2678.365308,807.510201 2679.287714,803.895703 2679.553335,800.926172 2680.476904,800.528420 2680.920632,802.751075 2680.621137,806.389567 2679.572006,809.340397 2677.623635,811.942418 2674.312614,814.132990 2670.590498,814.878986"/>
    <poly id="1027432714" type="landuse.grass" color="194,194,130" fill="1" layer="-3.00" shape="2678.720292,796.223062 2679.763991,796.288842 2678.735800,783.967605 2677.351866,783.122756 2678.720292,796.223062"/>
    <poly id="1027432715" type="landuse.grass" color="194,194,130" fill="1" layer="-3.00" shape="2675.865809,766.453360 2676.622209,765.649280 2674.764259,748.725003 2673.638672,747.871640 2675.865809,766.453360"/>
    <poly id="1027432716" type="landuse.grass" color="194,194,130" fill="1" layer="-3.00" shape="2672.839494,742.499570 2671.827840,733.862065 2672.790631,734.654009 2673.754646,741.846087 2672.839494,742.499570"/>
    <poly id="1027432717" type="landuse.grass" color="194,194,130" fill="1" layer="-3.00" shape="2670.823352,727.138811 2670.413490,724.247196 2671.533586,724.933779 2671.633767,726.488780 2670.823352,727.138811"/>
    <poly id="1027432718" type="landuse.grass" color="194,194,130" fill="1" layer="-3.00" shape="2681.911813,719.137687 2681.261131,713.604892 2682.242410,713.260892 2682.619323,718.546703 2681.911813,719.137687"/>
    <poly id="1027432719" type="landuse.grass" color="194,194,130" fill="1" layer="-3.00" shape="2684.473295,738.320581 2685.768767,738.177712 2683.987482,726.760623 2682.794893,727.055932 2684.473295,738.320581"/>
    <poly id="1027432720" type="landuse.grass" color="194,194,130" fill="1" layer="-3.00" shape="2686.371664,754.987520 2687.203861,753.301615 2688.073008,760.797352 2689.825720,771.135702 2692.204213,789.645655 2692.780722,794.412874 2691.746916,794.647296 2691.599674,793.360982 2690.051995,779.698915 2688.837490,771.268446 2686.371664,754.987520"/>
    <poly id="1027432721" type="landuse.grass" color="194,194,130" fill="1" layer="-3.00" shape="2712.358386,990.369984 2712.713939,988.432650 2714.335480,1001.368791 2715.676323,1013.635206 2717.031034,1023.140742 2718.463948,1033.322676 2718.897933,1037.159612 2717.783059,1036.417197 2717.253698,1034.564676 2716.098146,1021.557525 2715.024126,1012.721715 2714.710239,1009.559798 2712.358386,990.369984"/>
    <poly id="1027432722" type="landuse.grass" color="194,194,130" fill="1" layer="-3.00" shape="2727.133291,1109.961563 2728.224335,1109.981266 2726.565469,1095.911016 2724.304166,1079.467508 2720.602550,1049.647787 2719.901920,1051.718930 2721.074568,1062.699724 2724.319703,1089.484663 2725.234747,1096.678363 2727.133291,1109.961563"/>
    <poly id="1028110876" type="amenity.parking" color="184,184,179" fill="1" layer="-1.00" shape="2647.676325,646.691843 2641.922086,647.716319 2640.250388,638.354815 2646.004637,637.330337 2647.676325,646.691843"/>
    <poly id="1028110879" type="landuse.grass" color="194,194,130" fill="1" layer="-3.00" shape="2643.030367,1396.935061 2642.602364,1395.824965 2630.571459,1375.618607 2630.215087,1374.773289 2630.018928,1373.911558 2629.955440,1372.833968 2630.004744,1371.997535 2631.298523,1372.656114 2632.460015,1373.330186 2633.592096,1374.172189 2634.622017,1375.095476 2635.497972,1376.012709 2636.576732,1377.357354 2637.347927,1378.701010 2637.999698,1380.026343 2638.704724,1381.694972 2639.327835,1382.998988 2640.072584,1384.176555 2641.029718,1385.436166 2642.038307,1386.560511 2642.813199,1387.592384 2643.612318,1388.935121 2644.214831,1390.462431 2644.578498,1391.953093 2644.698903,1393.485168 2644.611306,1395.280108 2644.180554,1396.418516 2644.034621,1397.080042 2643.030367,1396.935061"/>
    <poly id="1028110880" type="landuse.grass" color="194,194,130" fill="1" layer="-3.00" shape="2658.398297,1400.702610 2657.743498,1400.557236 2658.126532,1398.819341 2659.016632,1397.409784 2659.916647,1396.088945 2660.626288,1395.141698 2661.377454,1394.181951 2662.212016,1393.419809 2663.134759,1392.788328 2664.273569,1392.138595 2665.536951,1391.451362 2666.960547,1390.747718 2668.257373,1390.014861 2669.378555,1389.254402 2670.484675,1388.461048 2671.695155,1387.653123 2672.951557,1386.966123 2674.385052,1386.562685 2675.587397,1386.356090 2677.023073,1386.230849 2678.226134,1386.257977 2680.337152,1386.689275 2680.115880,1387.397806 2679.825909,1387.930510 2679.568281,1388.384232 2679.079522,1388.823312 2678.444513,1389.278343 2659.836936,1400.243345 2659.149759,1400.599922 2658.398297,1400.702610"/>
    <poly id="1028110881" type="landuse.grass" color="194,194,130" fill="1" layer="-3.00" shape="2684.615213,1372.924220 2682.582143,1371.889289 2681.312633,1371.118590 2680.342972,1370.326877 2679.293232,1369.226143 2678.427949,1368.208374 2677.632502,1366.976819 2676.944713,1365.830762 2676.438084,1364.667602 2675.864953,1363.395327 2675.096717,1361.929130 2674.479844,1360.814128 2673.858225,1359.343098 2673.501895,1358.074807 2673.287400,1356.868626 2673.224690,1355.390303 2673.375099,1354.016262 2673.724298,1352.735845 2674.299497,1351.314410 2675.635533,1351.982738 2681.137868,1360.939713 2685.528784,1367.985445 2685.798067,1368.733460 2685.920000,1369.464071 2685.849028,1370.067471 2684.615213,1372.924220"/>