<?xml version="1.0" encoding="UTF-8"?>

<!-- generated on 2024-04-14 22:26:07.601781 by randomTrips.py v1_19_0+0000-baa66a0f364
<configuration>
    <net-file value="wielun.net.xml"/>
    <output-trip-file value="wielun.passenger.trips.xml"/>
    <route-file value="wielun.passenger.rou.xml"/>
    <prefix value="veh"/>
    <trip-attributes value="departLane=&quot;best&quot;"/>
    <fringe-start-attributes value="departSpeed=&quot;max&quot;"/>
    <vehicle-class value="passenger"/>
    <lanes value="True"/>
    <fringe-factor value="5"/>
    <allow-fringe.min-length value="1000.0"/>
    <via-edge-types value="highway.motorway,highway.motorway_link,highway.trunk_link,highway.primary_link,highway.secondary_link,highway.tertiary_link"/>
    <min-distance value="300.0"/>
    <min-distance.fringe value="10.0"/>
    <remove-loops value="True"/>
    <validate value="True"/>
    <insertion-density value="12.0"/>
</configuration>
-->

<!-- generated on 2024-04-14 22:26:07 by Eclipse SUMO duarouter Version 1.19.0
<configuration xmlns:xsi="http://www.w3.org/2001/XMLSchema-instance" xsi:noNamespaceSchemaLocation="http://sumo.dlr.de/xsd/duarouterConfiguration.xsd">

    <input>
        <net-file value="wielun.net.xml"/>
        <route-files value="wielun.passenger.trips.xml"/>
    </input>

    <output>
        <output-file value="wielun.passenger.trips.xml.tmp"/>
        <alternatives-output value="NUL"/>
        <write-trips value="true"/>
    </output>

    <processing>
        <remove-loops value="true"/>
    </processing>

    <time>
        <begin value="0.0"/>
        <end value="3600.0"/>
    </time>

    <report>
        <no-warnings value="true"/>
        <ignore-errors value="true"/>
        <no-step-log value="true"/>
    </report>

</configuration>
-->

<routes xmlns:xsi="http://www.w3.org/2001/XMLSchema-instance" xsi:noNamespaceSchemaLocation="http://sumo.dlr.de/xsd/routes_file.xsd">
    <vType id="veh_passenger" vClass="passenger"/>
    <trip id="veh0" type="veh_passenger" depart="0.00" departLane="best" from="42340628#1" to="-1152230290"/>
    <trip id="veh1" type="veh_passenger" depart="9.19" departLane="best" from="-549008080" to="-549008046#2"/>
    <trip id="veh2" type="veh_passenger" depart="18.39" departLane="best" from="549008059" to="549008043#0"/>
    <trip id="veh3" type="veh_passenger" depart="27.58" departLane="best" from="769716782" to="-288875956"/>
    <trip id="veh4" type="veh_passenger" depart="36.78" departLane="best" from="-549008085" to="-1152230290"/>
    <trip id="veh5" type="veh_passenger" depart="45.97" departLane="best" from="549008046#0" to="42336835#0"/>
    <trip id="veh6" type="veh_passenger" depart="55.17" departLane="best" departSpeed="max" from="-1202362037" to="-549008000"/>
    <trip id="veh7" type="veh_passenger" depart="64.36" departLane="best" from="-42340642#1" to="319023546#0"/>
    <trip id="veh8" type="veh_passenger" depart="73.56" departLane="best" from="-549008046#2" to="411763899#0"/>
    <trip id="veh9" type="veh_passenger" depart="82.75" departLane="best" from="549008083#0" to="-1073046199"/>
    <trip id="veh10" type="veh_passenger" depart="91.95" departLane="best" from="-549008081" to="549008055"/>
    <trip id="veh11" type="veh_passenger" depart="101.14" departLane="best" from="1046100143" to="-42340628#0"/>
    <trip id="veh12" type="veh_passenger" depart="110.34" departLane="best" from="778096185" to="-1046109807"/>
    <trip id="veh13" type="veh_passenger" depart="119.53" departLane="best" departSpeed="max" from="-319023546#1" to="-319023535#2"/>
    <trip id="veh14" type="veh_passenger" depart="128.72" departLane="best" from="-42340646" to="42340609"/>
    <trip id="veh15" type="veh_passenger" depart="137.92" departLane="best" from="-549008083#0" to="549008065"/>
    <trip id="veh16" type="veh_passenger" depart="147.11" departLane="best" from="319023535#1" to="814268085"/>
    <trip id="veh17" type="veh_passenger" depart="156.31" departLane="best" from="1078784916" to="319023546#1"/>
    <trip id="veh18" type="veh_passenger" depart="165.50" departLane="best" from="549118396" to="42340642#0"/>
    <trip id="veh19" type="veh_passenger" depart="174.70" departLane="best" departSpeed="max" from="-1132700068" to="319023556"/>
    <trip id="veh20" type="veh_passenger" depart="183.89" departLane="best" from="549008046#0" to="42340613#0"/>
    <trip id="veh21" type="veh_passenger" depart="193.09" departLane="best" from="549008056" to="549008083#0"/>
    <trip id="veh22" type="veh_passenger" depart="202.28" departLane="best" from="-319023535#2" to="-549008056"/>
    <trip id="veh23" type="veh_passenger" depart="211.48" departLane="best" departSpeed="max" from="-319023546#1" to="-549008080"/>
    <trip id="veh24" type="veh_passenger" depart="220.67" departLane="best" departSpeed="max" from="42340628#0" to="1078784916"/>
    <trip id="veh25" type="veh_passenger" depart="229.87" departLane="best" from="1078784913" to="-549008036"/>
    <trip id="veh26" type="veh_passenger" depart="239.06" departLane="best" from="-549008078" to="778096185"/>
    <trip id="veh27" type="veh_passenger" depart="248.25" departLane="best" from="-42340642#1" to="42340613#0"/>
    <trip id="veh28" type="veh_passenger" depart="257.45" departLane="best" departSpeed="max" from="-42340647" to="549008065"/>
    <trip id="veh29" type="veh_passenger" depart="266.64" departLane="best" departSpeed="max" from="-42340646" to="1078784922"/>
    <trip id="veh30" type="veh_passenger" depart="275.84" departLane="best" from="974006865" to="42340647"/>
    <trip id="veh31" type="veh_passenger" depart="285.03" departLane="best" from="-319023554" to="-549008046#2"/>
    <trip id="veh32" type="veh_passenger" depart="294.23" departLane="best" from="549118408" to="549008080"/>
    <trip id="veh33" type="veh_passenger" depart="303.42" departLane="best" from="549008056" to="-1152230290"/>
    <trip id="veh34" type="veh_passenger" depart="312.62" departLane="best" departSpeed="max" from="-792723120" to="-549008074"/>
    <trip id="veh35" type="veh_passenger" depart="321.81" departLane="best" from="-549008043#2" to="778096187"/>
    <trip id="veh36" type="veh_passenger" depart="331.01" departLane="best" departSpeed="max" from="42373465" to="1134433961"/>
    <trip id="veh37" type="veh_passenger" depart="340.20" departLane="best" from="-549008078" to="411763899#0"/>
    <trip id="veh38" type="veh_passenger" depart="349.40" departLane="best" from="-319023554" to="-549008071"/>
    <trip id="veh39" type="veh_passenger" depart="358.59" departLane="best" from="42336835#0" to="777538788"/>
    <trip id="veh40" type="veh_passenger" depart="367.78" departLane="best" from="1132700068" to="-549008043#2"/>
    <trip id="veh41" type="veh_passenger" depart="376.98" departLane="best" from="974006867" to="-288875956"/>
    <trip id="veh42" type="veh_passenger" depart="386.17" departLane="best" departSpeed="max" from="-319023546#1" to="-237382742#2"/>
    <trip id="veh43" type="veh_passenger" depart="395.37" departLane="best" departSpeed="max" from="-319023546#1" to="42340647"/>
    <trip id="veh44" type="veh_passenger" depart="404.56" departLane="best" from="549008079" to="1202362037"/>
    <trip id="veh45" type="veh_passenger" depart="413.76" departLane="best" from="-249487869" to="1078784922"/>
    <trip id="veh46" type="veh_passenger" depart="422.95" departLane="best" from="974006867" to="-319023535#2"/>
    <trip id="veh47" type="veh_passenger" depart="432.15" departLane="best" from="438404111" to="319023542#0"/>
    <trip id="veh48" type="veh_passenger" depart="441.34" departLane="best" from="-549008078" to="42340647"/>
    <trip id="veh49" type="veh_passenger" depart="450.54" departLane="best" from="194355534" to="792723120"/>
    <trip id="veh50" type="veh_passenger" depart="459.73" departLane="best" departSpeed="max" from="711814487" to="-549008071"/>
    <trip id="veh51" type="veh_passenger" depart="468.92" departLane="best" from="288875953#0" to="-42340641#1"/>
    <trip id="veh52" type="veh_passenger" depart="478.12" departLane="best" from="777538786" to="777538770"/>
    <trip id="veh53" type="veh_passenger" depart="487.31" departLane="best" from="-549118422" to="42340647"/>
    <trip id="veh54" type="veh_passenger" depart="496.51" departLane="best" departSpeed="max" from="42340627" to="-42340628#0"/>
    <trip id="veh55" type="veh_passenger" depart="505.70" departLane="best" from="549008070" to="319023542#0"/>
    <trip id="veh56" type="veh_passenger" depart="514.90" departLane="best" from="-549008078" to="319023535#1"/>
    <trip id="veh57" type="veh_passenger" depart="524.09" departLane="best" from="42373465" to="778096185"/>
    <trip id="veh58" type="veh_passenger" depart="533.29" departLane="best" departSpeed="max" from="-1132700068" to="549118415"/>
    <trip id="veh59" type="veh_passenger" depart="542.48" departLane="best" departSpeed="max" from="-792723120" to="-237382756"/>
    <trip id="veh60" type="veh_passenger" depart="551.68" departLane="best" departSpeed="max" from="711814487" to="791651315"/>
    <trip id="veh61" type="veh_passenger" depart="560.87" departLane="best" from="-319023542#1" to="288875954#0"/>
    <trip id="veh62" type="veh_passenger" depart="570.07" departLane="best" from="-288875956" to="549008078"/>
    <trip id="veh63" type="veh_passenger" depart="579.26" departLane="best" from="549008071" to="-42336836"/>
    <trip id="veh64" type="veh_passenger" depart="588.45" departLane="best" departSpeed="max" from="249826562" to="319023546#1"/>
    <trip id="veh65" type="veh_passenger" depart="597.65" departLane="best" from="-549008078" to="777538770"/>
    <trip id="veh66" type="veh_passenger" depart="606.84" departLane="best" from="-549008085" to="-549008039#1"/>
    <trip id="veh67" type="veh_passenger" depart="616.04" departLane="best" from="-319023535#2" to="549008065"/>
    <trip id="veh68" type="veh_passenger" depart="625.23" departLane="best" from="-549008035" to="1237762219"/>
    <trip id="veh69" type="veh_passenger" depart="634.43" departLane="best" from="974006865" to="-1152230290"/>
    <trip id="veh70" type="veh_passenger" depart="643.62" departLane="best" from="1263276573" to="319023535#0"/>
    <trip id="veh71" type="veh_passenger" depart="652.82" departLane="best" from="-331657131" to="-549008046#2"/>
    <trip id="veh72" type="veh_passenger" depart="662.01" departLane="best" from="1046100143" to="411763899#0"/>
    <trip id="veh73" type="veh_passenger" depart="671.21" departLane="best" from="549008056" to="549008043#0"/>
    <trip id="veh74" type="veh_passenger" depart="680.40" departLane="best" from="-319023527" to="42340647"/>
    <trip id="veh75" type="veh_passenger" depart="689.60" departLane="best" from="549008056" to="777538792"/>
    <trip id="veh76" type="veh_passenger" depart="698.79" departLane="best" from="709217977" to="-249826562"/>
    <trip id="veh77" type="veh_passenger" depart="707.98" departLane="best" from="-549008066" to="549008036"/>
    <trip id="veh78" type="veh_passenger" depart="717.18" departLane="best" from="-549008043#2" to="-42340627"/>
    <trip id="veh79" type="veh_passenger" depart="726.37" departLane="best" from="778096182" to="319023554"/>
    <trip id="veh80" type="veh_passenger" depart="735.57" departLane="best" departSpeed="max" from="249826562" to="549008081"/>
    <trip id="veh81" type="veh_passenger" depart="744.76" departLane="best" from="-549008083#0" to="549118415"/>
    <trip id="veh82" type="veh_passenger" depart="753.96" departLane="best" departSpeed="max" from="-319023546#1" to="-319023546#0"/>
    <trip id="veh83" type="veh_passenger" depart="763.15" departLane="best" from="-549008085" to="237264805#1"/>
    <trip id="veh84" type="veh_passenger" depart="772.35" departLane="best" from="1078784915" to="549008039#0"/>
    <trip id="veh85" type="veh_passenger" depart="781.54" departLane="best" from="974006864" to="-319023535#2"/>
    <trip id="veh86" type="veh_passenger" depart="790.74" departLane="best" from="-1132700068" to="-1046109807"/>
    <trip id="veh87" type="veh_passenger" depart="799.93" departLane="best" departSpeed="max" from="-1132700068" to="411763899#0"/>
    <trip id="veh88" type="veh_passenger" depart="809.13" departLane="best" from="-437406387#2" to="1263276573"/>
    <trip id="veh89" type="veh_passenger" depart="818.32" departLane="best" from="-549008070" to="778096183"/>
    <trip id="veh90" type="veh_passenger" depart="827.51" departLane="best" from="-319023542#1" to="237382742#0"/>
    <trip id="veh91" type="veh_passenger" depart="836.71" departLane="best" from="974006867" to="549118415"/>
    <trip id="veh92" type="veh_passenger" depart="845.90" departLane="best" from="549118422" to="-42340628#0"/>
    <trip id="veh93" type="veh_passenger" depart="855.10" departLane="best" departSpeed="max" from="249826562" to="-549008039#1"/>
    <trip id="veh94" type="veh_passenger" depart="864.29" departLane="best" from="1132700068" to="-237382756"/>
    <trip id="veh95" type="veh_passenger" depart="873.49" departLane="best" from="1078784918" to="974006864"/>
    <trip id="veh96" type="veh_passenger" depart="882.68" departLane="best" from="194355534" to="1202362037"/>
    <trip id="veh97" type="veh_passenger" depart="891.88" departLane="best" from="778096185" to="974006865"/>
    <trip id="veh98" type="veh_passenger" depart="901.07" departLane="best" from="-319023554" to="549008060"/>
    <trip id="veh99" type="veh_passenger" depart="910.27" departLane="best" departSpeed="max" from="-42340646" to="549008085"/>
    <trip id="veh100" type="veh_passenger" depart="919.46" departLane="best" from="-792659379" to="319023556"/>
    <trip id="veh101" type="veh_passenger" depart="928.66" departLane="best" from="319023535#1" to="549008071"/>
    <trip id="veh102" type="veh_passenger" depart="937.85" departLane="best" from="-237382742#2" to="-39122228"/>
    <trip id="veh103" type="veh_passenger" depart="947.04" departLane="best" from="288875953#0" to="709217977"/>
    <trip id="veh104" type="veh_passenger" depart="956.24" departLane="best" departSpeed="max" from="-42340646" to="792723120"/>
    <trip id="veh105" type="veh_passenger" depart="965.43" departLane="best" from="-319023535#2" to="42340642#0"/>
    <trip id="veh106" type="veh_passenger" depart="974.63" departLane="best" from="-549008066" to="331657131"/>
    <trip id="veh107" type="veh_passenger" depart="983.82" departLane="best" from="769716782" to="-549008067"/>
    <trip id="veh108" type="veh_passenger" depart="993.02" departLane="best" from="-249487869" to="42340642#0"/>
    <trip id="veh109" type="veh_passenger" depart="1002.21" departLane="best" from="1152230292" to="331657131"/>
    <trip id="veh110" type="veh_passenger" depart="1011.41" departLane="best" from="-549008036" to="549008060"/>
    <trip id="veh111" type="veh_passenger" depart="1020.60" departLane="best" from="-549008067" to="1134433961"/>
    <trip id="veh112" type="veh_passenger" depart="1029.80" departLane="best" departSpeed="max" from="42373465" to="549008085"/>
    <trip id="veh113" type="veh_passenger" depart="1038.99" departLane="best" departSpeed="max" from="-792723120" to="549008071"/>
    <trip id="veh114" type="veh_passenger" depart="1048.19" departLane="best" from="-319023527" to="194296246"/>
    <trip id="veh115" type="veh_passenger" depart="1057.38" departLane="best" from="-549008078" to="778096185"/>
    <trip id="veh116" type="veh_passenger" depart="1066.57" departLane="best" from="720901625" to="777538785"/>
    <trip id="veh117" type="veh_passenger" depart="1075.77" departLane="best" from="1078784913" to="-42340628#0"/>
    <trip id="veh118" type="veh_passenger" depart="1084.96" departLane="best" from="549118397" to="-549008056"/>
    <trip id="veh119" type="veh_passenger" depart="1094.16" departLane="best" departSpeed="max" from="42340627" to="974006864"/>
    <trip id="veh120" type="veh_passenger" depart="1103.35" departLane="best" from="42340648" to="-1073046199"/>
    <trip id="veh121" type="veh_passenger" depart="1112.55" departLane="best" departSpeed="max" from="42373465" to="778096186"/>
    <trip id="veh122" type="veh_passenger" depart="1121.74" departLane="best" from="-42340628#1" to="-319023554"/>
    <trip id="veh123" type="veh_passenger" depart="1130.94" departLane="best" from="-549008080" to="42340609"/>
    <trip id="veh124" type="veh_passenger" depart="1140.13" departLane="best" from="549008052" to="-549008035"/>
    <trip id="veh125" type="veh_passenger" depart="1149.33" departLane="best" departSpeed="max" from="42340628#0" to="-549008071"/>
    <trip id="veh126" type="veh_passenger" depart="1158.52" departLane="best" departSpeed="max" from="249826562" to="777538792"/>
    <trip id="veh127" type="veh_passenger" depart="1167.72" departLane="best" from="-42340646" to="-319023527"/>
    <trip id="veh128" type="veh_passenger" depart="1176.91" departLane="best" from="1046109807" to="549008079"/>
    <trip id="veh129" type="veh_passenger" depart="1186.10" departLane="best" departSpeed="max" from="42340628#0" to="-549008071"/>
    <trip id="veh130" type="veh_passenger" depart="1195.30" departLane="best" from="549008062" to="319023546#1"/>
    <trip id="veh131" type="veh_passenger" depart="1204.49" departLane="best" from="-549008085" to="-1073046199"/>
    <trip id="veh132" type="veh_passenger" depart="1213.69" departLane="best" from="319023535#0" to="777538785"/>
    <trip id="veh133" type="veh_passenger" depart="1222.88" departLane="best" from="777538784" to="319023546#0"/>
    <trip id="veh134" type="veh_passenger" depart="1232.08" departLane="best" from="-42340642#1" to="-42336836"/>
    <trip id="veh135" type="veh_passenger" depart="1241.27" departLane="best" departSpeed="max" from="-792723120" to="777538788"/>
    <trip id="veh136" type="veh_passenger" depart="1250.47" departLane="best" from="549008080" to="720901625"/>
    <trip id="veh137" type="veh_passenger" depart="1259.66" departLane="best" from="-549008070" to="-319023542#1"/>
    <trip id="veh138" type="veh_passenger" depart="1268.86" departLane="best" from="-549008078" to="777538785"/>
    <trip id="veh139" type="veh_passenger" depart="1278.05" departLane="best" from="1134433961" to="42340642#0"/>
    <trip id="veh140" type="veh_passenger" depart="1287.25" departLane="best" departSpeed="max" from="-42340646" to="778096185"/>
    <trip id="veh141" type="veh_passenger" depart="1296.44" departLane="best" departSpeed="max" from="-1132700068" to="962307427"/>
    <trip id="veh142" type="veh_passenger" depart="1305.63" departLane="best" from="-549008084" to="777538784"/>
    <trip id="veh143" type="veh_passenger" depart="1314.83" departLane="best" departSpeed="max" from="-1202362037" to="549008066"/>
    <trip id="veh144" type="veh_passenger" depart="1324.02" departLane="best" from="549008081" to="769716780"/>
    <trip id="veh145" type="veh_passenger" depart="1333.22" departLane="best" from="-549008084" to="-549008074"/>
    <trip id="veh146" type="veh_passenger" depart="1342.41" departLane="best" departSpeed="max" from="711814487" to="720901625"/>
    <trip id="veh147" type="veh_passenger" depart="1351.61" departLane="best" from="1152230292" to="549118404"/>
    <trip id="veh148" type="veh_passenger" depart="1360.80" departLane="best" from="-549008080" to="-549008048"/>
    <trip id="veh149" type="veh_passenger" depart="1370.00" departLane="best" from="-1189727142" to="549118415"/>
    <trip id="veh150" type="veh_passenger" depart="1379.19" departLane="best" from="-974646436" to="769716780"/>
    <trip id="veh151" type="veh_passenger" depart="1388.39" departLane="best" from="778096187" to="-549008080"/>
    <trip id="veh152" type="veh_passenger" depart="1397.58" departLane="best" from="42340628#1" to="1149133719"/>
    <trip id="veh153" type="veh_passenger" depart="1406.77" departLane="best" from="962307428" to="319023542#0"/>
    <trip id="veh154" type="veh_passenger" depart="1415.97" departLane="best" from="778096182" to="-319023554"/>
    <trip id="veh155" type="veh_passenger" depart="1425.16" departLane="best" from="791651315" to="-42340641#1"/>
    <trip id="veh156" type="veh_passenger" depart="1434.36" departLane="best" from="778096186" to="-549008074"/>
    <trip id="veh157" type="veh_passenger" depart="1443.55" departLane="best" departSpeed="max" from="-319023546#1" to="-319023546#0"/>
    <trip id="veh158" type="veh_passenger" depart="1452.75" departLane="best" from="1078784915" to="-974646436"/>
    <trip id="veh159" type="veh_passenger" depart="1461.94" departLane="best" departSpeed="max" from="42340627" to="288875956"/>
    <trip id="veh160" type="veh_passenger" depart="1471.14" departLane="best" from="549008062" to="319023556"/>
    <trip id="veh161" type="veh_passenger" depart="1480.33" departLane="best" from="-549008070" to="549008057"/>
    <trip id="veh162" type="veh_passenger" depart="1489.53" departLane="best" from="1046109807" to="778096183"/>
    <trip id="veh163" type="veh_passenger" depart="1498.72" departLane="best" from="319023535#1" to="1078784919"/>
    <trip id="veh164" type="veh_passenger" depart="1507.92" departLane="best" from="549008062" to="549008036"/>
    <trip id="veh165" type="veh_passenger" depart="1517.11" departLane="best" from="1062682404" to="-249826562"/>
    <trip id="veh166" type="veh_passenger" depart="1526.30" departLane="best" departSpeed="max" from="42373465" to="1046107949"/>
    <trip id="veh167" type="veh_passenger" depart="1535.50" departLane="best" departSpeed="max" from="-792723120" to="-549118422"/>
    <trip id="veh168" type="veh_passenger" depart="1544.69" departLane="best" from="549008052" to="549008085"/>
    <trip id="veh169" type="veh_passenger" depart="1553.89" departLane="best" departSpeed="max" from="-792723120" to="1202362037"/>
    <trip id="veh170" type="veh_passenger" depart="1563.08" departLane="best" from="1132700068" to="1223056399"/>
    <trip id="veh171" type="veh_passenger" depart="1572.28" departLane="best" from="-39122228" to="1202362037"/>
    <trip id="veh172" type="veh_passenger" depart="1581.47" departLane="best" from="778096182" to="-549008043#2"/>
    <trip id="veh173" type="veh_passenger" depart="1590.67" departLane="best" from="777538784" to="-42340641#1"/>
    <trip id="veh174" type="veh_passenger" depart="1599.86" departLane="best" from="-792659379" to="319023546#1"/>
    <trip id="veh175" type="veh_passenger" depart="1609.06" departLane="best" from="1046109807" to="549008083#0"/>
    <trip id="veh176" type="veh_passenger" depart="1618.25" departLane="best" departSpeed="max" from="42373465" to="194355534"/>
    <trip id="veh177" type="veh_passenger" depart="1627.45" departLane="best" from="186938889" to="-549008039#1"/>
    <trip id="veh178" type="veh_passenger" depart="1636.64" departLane="best" departSpeed="max" from="249826562" to="777538788"/>
    <trip id="veh179" type="veh_passenger" depart="1645.83" departLane="best" from="549008080" to="-42340628#0"/>
    <trip id="veh180" type="veh_passenger" depart="1655.03" departLane="best" from="-319023542#1" to="319023527"/>
    <trip id="veh181" type="veh_passenger" depart="1664.22" departLane="best" departSpeed="max" from="42340628#0" to="1046109806#0"/>
    <trip id="veh182" type="veh_passenger" depart="1673.42" departLane="best" from="-549008084" to="-549008071"/>
    <trip id="veh183" type="veh_passenger" depart="1682.61" departLane="best" departSpeed="max" from="42373465" to="-549008046#2"/>
    <trip id="veh184" type="veh_passenger" depart="1691.81" departLane="best" from="-549008035" to="-1152230290"/>
    <trip id="veh185" type="veh_passenger" depart="1701.00" departLane="best" from="-549008067" to="248975819"/>
    <trip id="veh186" type="veh_passenger" depart="1710.20" departLane="best" from="549118422" to="-249826562"/>
    <trip id="veh187" type="veh_passenger" depart="1719.39" departLane="best" from="1149133719" to="42340647"/>
    <trip id="veh188" type="veh_passenger" depart="1728.59" departLane="best" from="-549008000" to="549008052"/>
    <trip id="veh189" type="veh_passenger" depart="1737.78" departLane="best" departSpeed="max" from="42373465" to="549008065"/>
    <trip id="veh190" type="veh_passenger" depart="1746.98" departLane="best" from="-1073046199" to="549008079"/>
    <trip id="veh191" type="veh_passenger" depart="1756.17" departLane="best" departSpeed="max" from="-319023546#1" to="1202362037"/>
    <trip id="veh192" type="veh_passenger" depart="1765.36" departLane="best" departSpeed="max" from="-42340647" to="792723120"/>
    <trip id="veh193" type="veh_passenger" depart="1774.56" departLane="best" from="549008070" to="549118422"/>
    <trip id="veh194" type="veh_passenger" depart="1783.75" departLane="best" from="194355534" to="549008085"/>
    <trip id="veh195" type="veh_passenger" depart="1792.95" departLane="best" departSpeed="max" from="42373465" to="974006865"/>
    <trip id="veh196" type="veh_passenger" depart="1802.14" departLane="best" from="42340613#0" to="792723120"/>
    <trip id="veh197" type="veh_passenger" depart="1811.34" departLane="best" from="769716782" to="42340628#1"/>
    <trip id="veh198" type="veh_passenger" depart="1820.53" departLane="best" from="549008052" to="42336835#0"/>
    <trip id="veh199" type="veh_passenger" depart="1829.73" departLane="best" from="549118396" to="319023546#1"/>
    <trip id="veh200" type="veh_passenger" depart="1838.92" departLane="best" from="777538774" to="549008070"/>
    <trip id="veh201" type="veh_passenger" depart="1848.12" departLane="best" departSpeed="max" from="249826562" to="549008070"/>
    <trip id="veh202" type="veh_passenger" depart="1857.31" departLane="best" from="-549008070" to="42340647"/>
    <trip id="veh203" type="veh_passenger" depart="1866.51" departLane="best" from="-549008071" to="319023535#0"/>
    <trip id="veh204" type="veh_passenger" depart="1875.70" departLane="best" departSpeed="max" from="42340628#0" to="-549008079"/>
    <trip id="veh205" type="veh_passenger" depart="1884.89" departLane="best" from="-319023535#0" to="549008083#0"/>
    <trip id="veh206" type="veh_passenger" depart="1894.09" departLane="best" from="-549008080" to="1030991935"/>
    <trip id="veh207" type="veh_passenger" depart="1903.28" departLane="best" from="319023535#1" to="-42340627"/>
    <trip id="veh208" type="veh_passenger" depart="1912.48" departLane="best" from="-549008063" to="549008052"/>
    <trip id="veh209" type="veh_passenger" depart="1921.67" departLane="best" from="549008046#0" to="-249826562"/>
    <trip id="veh210" type="veh_passenger" depart="1930.87" departLane="best" from="1134433961" to="319023546#0"/>
    <trip id="veh211" type="veh_passenger" depart="1940.06" departLane="best" from="1152230292" to="549008036"/>
    <trip id="veh212" type="veh_passenger" depart="1949.26" departLane="best" from="-549008085" to="777538792"/>
    <trip id="veh213" type="veh_passenger" depart="1958.45" departLane="best" from="411763917" to="549008052"/>
    <trip id="veh214" type="veh_passenger" depart="1967.65" departLane="best" from="1078784918" to="549008065"/>
    <trip id="veh215" type="veh_passenger" depart="1976.84" departLane="best" from="1046109807" to="549008074"/>
    <trip id="veh216" type="veh_passenger" depart="1986.04" departLane="best" from="709217977" to="792723120"/>
    <trip id="veh217" type="veh_passenger" depart="1995.23" departLane="best" from="1152230292" to="549008071"/>
    <trip id="veh218" type="veh_passenger" depart="2004.42" departLane="best" from="319023542#0" to="42340609"/>
    <trip id="veh219" type="veh_passenger" depart="2013.62" departLane="best" from="1237762219" to="-1152230290"/>
    <trip id="veh220" type="veh_passenger" depart="2022.81" departLane="best" from="1030991935" to="549008043#0"/>
    <trip id="veh221" type="veh_passenger" depart="2032.01" departLane="best" from="1134433961" to="-42340628#0"/>
    <trip id="veh222" type="veh_passenger" depart="2041.20" departLane="best" from="248975819" to="-42336836"/>
    <trip id="veh223" type="veh_passenger" depart="2050.40" departLane="best" departSpeed="max" from="42340628#0" to="-1152230290"/>
    <trip id="veh224" type="veh_passenger" depart="2059.59" departLane="best" from="549008059" to="319023546#1"/>
    <trip id="veh225" type="veh_passenger" depart="2068.79" departLane="best" departSpeed="max" from="-1202362037" to="42340647"/>
    <trip id="veh226" type="veh_passenger" depart="2077.98" departLane="best" from="-42340628#1" to="194296246"/>
    <trip id="veh227" type="veh_passenger" depart="2087.18" departLane="best" from="-237382742#2" to="1078784922"/>
    <trip id="veh228" type="veh_passenger" depart="2096.37" departLane="best" from="-549008043#2" to="1046100143"/>
    <trip id="veh229" type="veh_passenger" depart="2105.57" departLane="best" from="-549008066" to="1078784922"/>
    <trip id="veh230" type="veh_passenger" depart="2114.76" departLane="best" from="549008065" to="549118415"/>
    <trip id="veh231" type="veh_passenger" depart="2123.95" departLane="best" from="-549008070" to="-249826562"/>
    <trip id="veh232" type="veh_passenger" depart="2133.15" departLane="best" from="42373465" to="319023542#0"/>
    <trip id="veh233" type="veh_passenger" depart="2142.34" departLane="best" from="974006867" to="1062682404"/>
    <trip id="veh234" type="veh_passenger" depart="2151.54" departLane="best" from="-42340642#1" to="549008081"/>
    <trip id="veh235" type="veh_passenger" depart="2160.73" departLane="best" from="-549008000" to="549008074"/>
    <trip id="veh236" type="veh_passenger" depart="2169.93" departLane="best" from="778096183" to="-549008000"/>
    <trip id="veh237" type="veh_passenger" depart="2179.12" departLane="best" from="42373465" to="-42340628#0"/>
    <trip id="veh238" type="veh_passenger" depart="2188.32" departLane="best" from="-39122228" to="549008036"/>
    <trip id="veh239" type="veh_passenger" depart="2197.51" departLane="best" from="-237382756" to="549008043#0"/>