<?xml version="1.0" encoding="UTF-8"?>

<!-- generated on 2024-04-14 21:48:02.498028 by osmWebWizard.py v1_19_0+0000-baa66a0f364
<configuration>
    <net-file value="D:\!! Projekty\magister\2024-04-14-21-47-53\osm.net.xml.gz"/>
    <output-trip-file value="D:\!! Projekty\magister\2024-04-14-21-47-53\osm.passenger.trips.xml"/>
    <route-file value="D:\!! Projekty\magister\2024-04-14-21-47-53\osm.passenger.rou.xml"/>
    <prefix value="veh"/>
    <trip-attributes value="departLane=&quot;best&quot;"/>
    <fringe-start-attributes value="departSpeed=&quot;max&quot;"/>
    <vehicle-class value="passenger"/>
    <lanes value="True"/>
    <fringe-factor value="5"/>
    <allow-fringe.min-length value="1000.0"/>
    <via-edge-types value="highway.motorway,highway.motorway_link,highway.trunk_link,highway.primary_link,highway.secondary_link,highway.tertiary_link"/>
    <min-distance value="300.0"/>
    <min-distance.fringe value="10.0"/>
    <remove-loops value="True"/>
    <validate value="True"/>
    <insertion-density value="12.0"/>
</configuration>
-->

<!-- generated on 2024-04-14 21:48:02 by Eclipse SUMO duarouter Version 1.19.0
<configuration xmlns:xsi="http://www.w3.org/2001/XMLSchema-instance" xsi:noNamespaceSchemaLocation="http://sumo.dlr.de/xsd/duarouterConfiguration.xsd">

    <input>
        <net-file value="D:\!! Projekty\magister\2024-04-14-21-47-53\osm.net.xml.gz"/>
        <route-files value="D:\!! Projekty\magister\2024-04-14-21-47-53\osm.passenger.trips.xml"/>
    </input>

    <output>
        <output-file value="D:\!! Projekty\magister\2024-04-14-21-47-53\osm.passenger.trips.xml.tmp"/>
        <alternatives-output value="NUL"/>
        <write-trips value="true"/>
    </output>

    <processing>
        <remove-loops value="true"/>
    </processing>

    <time>
        <begin value="0.0"/>
        <end value="3600.0"/>
    </time>

    <report>
        <no-warnings value="true"/>
        <ignore-errors value="true"/>
        <no-step-log value="true"/>
    </report>

</configuration>
-->

<routes xmlns:xsi="http://www.w3.org/2001/XMLSchema-instance" xsi:noNamespaceSchemaLocation="http://sumo.dlr.de/xsd/routes_file.xsd">
    <vType id="veh_passenger" vClass="passenger"/>
    <trip id="veh0" type="veh_passenger" depart="0.00" departLane="best" from="-36964172#1" to="-36957697#4"/>
    <trip id="veh1" type="veh_passenger" depart="3.56" departLane="best" from="36961382#2" to="36957241"/>
    <trip id="veh2" type="veh_passenger" depart="7.12" departLane="best" from="-549008074" to="-150031800#0"/>
    <trip id="veh3" type="veh_passenger" depart="10.67" departLane="best" from="1030991934" to="-1187945159"/>
    <trip id="veh4" type="veh_passenger" depart="14.23" departLane="best" from="-36957010" to="168324533#0"/>
    <trip id="veh5" type="veh_passenger" depart="17.79" departLane="best" from="1187945161" to="-36957009#6"/>
    <trip id="veh6" type="veh_passenger" depart="21.35" departLane="best" departSpeed="max" from="252242443" to="249165234"/>
    <trip id="veh7" type="veh_passenger" depart="24.90" departLane="best" departSpeed="max" from="-36957011#1" to="249496948"/>
    <trip id="veh8" type="veh_passenger" depart="28.46" departLane="best" from="42340632" to="-1126877651#0"/>
    <trip id="veh9" type="veh_passenger" depart="32.02" departLane="best" departSpeed="max" from="42340628#0" to="36961382#3"/>
    <trip id="veh10" type="veh_passenger" depart="35.58" departLane="best" departSpeed="max" from="-468490683" to="-250475307"/>
    <trip id="veh11" type="veh_passenger" depart="39.13" departLane="best" from="777538792" to="-549150573"/>
    <trip id="veh12" type="veh_passenger" depart="42.69" departLane="best" departSpeed="max" from="-155281468" to="-168324531"/>
    <trip id="veh13" type="veh_passenger" depart="46.25" departLane="best" from="42340628#3" to="36963829#1"/>
    <trip id="veh14" type="veh_passenger" depart="49.81" departLane="best" from="-140617521#0" to="894887827"/>
    <trip id="veh15" type="veh_passenger" depart="53.36" departLane="best" from="-549008083#0" to="249165235"/>
    <trip id="veh16" type="veh_passenger" depart="56.92" departLane="best" from="42340648" to="311366765"/>
    <trip id="veh17" type="veh_passenger" depart="60.48" departLane="best" from="-548822460#0" to="249487853"/>
    <trip id="veh18" type="veh_passenger" depart="64.04" departLane="best" from="36957009#2" to="-1256732281"/>
    <trip id="veh19" type="veh_passenger" depart="67.59" departLane="best" departSpeed="max" from="-36957012#1" to="437406387#0"/>
    <trip id="veh20" type="veh_passenger" depart="71.15" departLane="best" departSpeed="max" from="-140617521#2" to="36963829#0"/>
    <trip id="veh21" type="veh_passenger" depart="74.71" departLane="best" from="-168324533#1" to="42340642#2"/>
    <trip id="veh22" type="veh_passenger" depart="78.27" departLane="best" from="250475307" to="1046100143"/>
    <trip id="veh23" type="veh_passenger" depart="81.82" departLane="best" from="-549008067" to="-36957244#0"/>
    <trip id="veh24" type="veh_passenger" depart="85.38" departLane="best" departSpeed="max" from="-36963829#1" to="777538788"/>
    <trip id="veh25" type="veh_passenger" depart="88.94" departLane="best" departSpeed="max" from="252242443" to="-288875956#0"/>
    <trip id="veh26" type="veh_passenger" depart="92.50" departLane="best" departSpeed="max" from="-249560919" to="36963829#1"/>
    <trip id="veh27" type="veh_passenger" depart="96.05" departLane="best" departSpeed="max" from="-249487855" to="549008057"/>
    <trip id="veh28" type="veh_passenger" depart="99.61" departLane="best" from="974006864" to="319023554"/>
    <trip id="veh29" type="veh_passenger" depart="103.17" departLane="best" from="150031801#0" to="-36957243#0"/>
    <trip id="veh30" type="veh_passenger" depart="106.73" departLane="best" departSpeed="max" from="42373465" to="42340633"/>
    <trip id="veh31" type="veh_passenger" depart="110.28" departLane="best" departSpeed="max" from="-36957012#1" to="-1187945162"/>
    <trip id="veh32" type="veh_passenger" depart="113.84" departLane="best" departSpeed="max" from="-42340646#1" to="-42340627"/>
    <trip id="veh33" type="veh_passenger" depart="117.40" departLane="best" from="36957009#0" to="778096183"/>
    <trip id="veh34" type="veh_passenger" depart="120.96" departLane="best" from="1078784918#0" to="549008063"/>
    <trip id="veh35" type="veh_passenger" depart="124.51" departLane="best" departSpeed="max" from="285555134" to="1134433961#0"/>
    <trip id="veh36" type="veh_passenger" depart="128.07" departLane="best" from="549118404#1" to="140609514#0"/>
    <trip id="veh37" type="veh_passenger" depart="131.63" departLane="best" departSpeed="max" from="-36963829#1" to="-36972185"/>
    <trip id="veh38" type="veh_passenger" depart="135.19" departLane="best" departSpeed="max" from="168324531" to="-42340613#1"/>
    <trip id="veh39" type="veh_passenger" depart="138.74" departLane="best" departSpeed="max" from="237207823" to="549118397"/>
    <trip id="veh40" type="veh_passenger" depart="142.30" departLane="best" departSpeed="max" from="-792723120#1" to="-36957422"/>
    <trip id="veh41" type="veh_passenger" depart="145.86" departLane="best" from="-1261923927#0" to="186938889"/>
    <trip id="veh42" type="veh_passenger" depart="149.42" departLane="best" departSpeed="max" from="-155281468" to="1256732289"/>
    <trip id="veh43" type="veh_passenger" depart="152.97" departLane="best" from="-237382742#2" to="319023535#0"/>
    <trip id="veh44" type="veh_passenger" depart="156.53" departLane="best" departSpeed="max" from="-140609539" to="549008054"/>
    <trip id="veh45" type="veh_passenger" depart="160.09" departLane="best" from="979356569" to="249165227"/>
    <trip id="veh46" type="veh_passenger" depart="163.65" departLane="best" from="792662761" to="549008054"/>
    <trip id="veh47" type="veh_passenger" depart="167.20" departLane="best" from="-1145631053#1" to="36963828#1"/>
    <trip id="veh48" type="veh_passenger" depart="170.76" departLane="best" from="-319023542#1" to="249165228"/>
    <trip id="veh49" type="veh_passenger" depart="174.32" departLane="best" departSpeed="max" from="-36963829#1" to="319023554"/>
    <trip id="veh50" type="veh_passenger" depart="177.88" departLane="best" from="-237440378" to="-974646436"/>
    <trip id="veh51" type="veh_passenger" depart="181.43" departLane="best" departSpeed="max" from="1126877651#0" to="549118388"/>
    <trip id="veh52" type="veh_passenger" depart="184.99" departLane="best" from="1078784918#0" to="-42340627"/>
    <trip id="veh53" type="veh_passenger" depart="188.55" departLane="best" from="1256732275" to="311366766#0"/>
    <trip id="veh54" type="veh_passenger" depart="192.11" departLane="best" from="549118397" to="-549008063"/>
    <trip id="veh55" type="veh_passenger" depart="195.66" departLane="best" from="42340628#1" to="319023546#2"/>
    <trip id="veh56" type="veh_passenger" depart="199.22" departLane="best" departSpeed="max" from="249176876#0" to="250189837"/>
    <trip id="veh57" type="veh_passenger" depart="202.78" departLane="best" from="-36964170#0" to="249165232"/>
    <trip id="veh58" type="veh_passenger" depart="206.34" departLane="best" from="36972189#2" to="249165227"/>
    <trip id="veh59" type="veh_passenger" depart="209.89" departLane="best" departSpeed="max" from="-1016548687" to="549008080"/>
    <trip id="veh61" type="veh_passenger" depart="217.01" departLane="best" from="549008055" to="468490683"/>
    <trip id="veh62" type="veh_passenger" depart="220.57" departLane="best" departSpeed="max" from="-42340644#1" to="-140609514#0"/>
    <trip id="veh63" type="veh_passenger" depart="224.12" departLane="best" from="549008055" to="778096186"/>
    <trip id="veh64" type="veh_passenger" depart="227.68" departLane="best" from="-150031800#1" to="140617521#2"/>
    <trip id="veh65" type="veh_passenger" depart="231.24" departLane="best" from="140614083" to="411763899#0"/>
    <trip id="veh66" type="veh_passenger" depart="234.80" departLane="best" from="36964172#0" to="-248971812"/>
    <trip id="veh67" type="veh_passenger" depart="238.35" departLane="best" from="-1152230290#2" to="249165235"/>
    <trip id="veh68" type="veh_passenger" depart="241.91" departLane="best" from="1030991935" to="-36957244#0"/>
    <trip id="veh69" type="veh_passenger" depart="245.47" departLane="best" departSpeed="max" from="-319023546#2" to="-549008048#0"/>
    <trip id="veh70" type="veh_passenger" depart="249.03" departLane="best" from="978480468" to="36956853#5"/>
    <trip id="veh71" type="veh_passenger" depart="252.58" departLane="best" from="1073047160" to="194355536"/>
    <trip id="veh72" type="veh_passenger" depart="256.14" departLane="best" departSpeed="max" from="-249165228" to="953233298"/>
    <trip id="veh73" type="veh_passenger" depart="259.70" departLane="best" departSpeed="max" from="-468490683" to="249496948"/>
    <trip id="veh74" type="veh_passenger" depart="263.26" departLane="best" departSpeed="max" from="-36957012#1" to="-36957422"/>
    <trip id="veh75" type="veh_passenger" depart="266.81" departLane="best" departSpeed="max" from="-140617248" to="-319023542#1"/>
    <trip id="veh76" type="veh_passenger" depart="270.37" departLane="best" departSpeed="max" from="-36957012#1" to="549118415#3"/>
    <trip id="veh77" type="veh_passenger" depart="273.93" departLane="best" from="-468490215#1" to="-140617520"/>
    <trip id="veh78" type="veh_passenger" depart="277.49" departLane="best" from="36957009#4" to="-249176876#0"/>
    <trip id="veh80" type="veh_passenger" depart="284.60" departLane="best" from="-42336836#0" to="42340642#2"/>
    <trip id="veh81" type="veh_passenger" depart="288.16" departLane="best" from="-42340628#3" to="331657131"/>
    <trip id="veh83" type="veh_passenger" depart="295.27" departLane="best" from="1043579719" to="140614062"/>
    <trip id="veh84" type="veh_passenger" depart="298.83" departLane="best" from="36957697#1" to="-36957240#0"/>
    <trip id="veh85" type="veh_passenger" depart="302.39" departLane="best" departSpeed="max" from="-794939789" to="-549150573"/>
    <trip id="veh86" type="veh_passenger" depart="305.95" departLane="best" from="-548822460#0" to="36972186#1"/>
    <trip id="veh87" type="veh_passenger" depart="309.50" departLane="best" departSpeed="max" from="-311366765" to="1256732290"/>
    <trip id="veh88" type="veh_passenger" depart="313.06" departLane="best" from="1030991934" to="-42340644#0"/>
    <trip id="veh89" type="veh_passenger" depart="316.62" departLane="best" departSpeed="max" from="-36963211#1" to="769716782"/>
    <trip id="veh90" type="veh_passenger" depart="320.18" departLane="best" from="150031799#2" to="-1261923927#1"/>
    <trip id="veh91" type="veh_passenger" depart="323.73" departLane="best" from="984504991" to="515865022"/>
    <trip id="veh92" type="veh_passenger" depart="327.29" departLane="best" from="-792659379" to="777538770"/>
    <trip id="veh93" type="veh_passenger" depart="330.85" departLane="best" from="437412745" to="-252242443"/>
    <trip id="veh94" type="veh_passenger" depart="334.41" departLane="best" from="-1187945158" to="-36957244#1"/>
    <trip id="veh95" type="veh_passenger" depart="337.96" departLane="best" departSpeed="max" from="-792723120#1" to="140609514#1"/>
    <trip id="veh96" type="veh_passenger" depart="341.52" departLane="best" from="-549008084" to="962307428"/>
    <trip id="veh97" type="veh_passenger" depart="345.08" departLane="best" departSpeed="max" from="-36963829#1" to="42340642#0"/>
    <trip id="veh98" type="veh_passenger" depart="348.64" departLane="best" from="1132700067" to="1202362037"/>
    <trip id="veh99" type="veh_passenger" depart="352.19" departLane="best" from="150031800#1" to="36963794#2"/>
    <trip id="veh100" type="veh_passenger" depart="355.75" departLane="best" departSpeed="max" from="-249487853" to="-468490215#0"/>
    <trip id="veh101" type="veh_passenger" depart="359.31" departLane="best" from="-792659379" to="249487855"/>
    <trip id="veh102" type="veh_passenger" depart="362.87" departLane="best" departSpeed="max" from="149129002" to="36964176"/>
    <trip id="veh103" type="veh_passenger" depart="366.42" departLane="best" from="-140609514#0" to="249487862#1"/>
    <trip id="veh104" type="veh_passenger" depart="369.98" departLane="best" from="1256732277" to="549008039#2"/>
    <trip id="veh105" type="veh_passenger" depart="373.54" departLane="best" departSpeed="max" from="-249487853" to="792723120#1"/>
    <trip id="veh106" type="veh_passenger" depart="377.10" departLane="best" departSpeed="max" from="-140617521#2" to="319023542#0"/>
    <trip id="veh107" type="veh_passenger" depart="380.65" departLane="best" from="237440378" to="36957241"/>
    <trip id="veh108" type="veh_passenger" depart="384.21" departLane="best" departSpeed="max" from="-36957241" to="-237382742#2"/>
    <trip id="veh109" type="veh_passenger" depart="387.77" departLane="best" from="-549008071" to="-36972184"/>
    <trip id="veh110" type="veh_passenger" depart="391.33" departLane="best" from="237440378" to="311366765"/>
    <trip id="veh111" type="veh_passenger" depart="394.88" departLane="best" from="1016548685" to="249487862#0"/>
    <trip id="veh112" type="veh_passenger" depart="398.44" departLane="best" from="140614062" to="777538787"/>
    <trip id="veh113" type="veh_passenger" depart="402.00" departLane="best" departSpeed="max" from="-319023546#2" to="36963794#0"/>
    <trip id="veh114" type="veh_passenger" depart="405.56" departLane="best" from="36957243#1" to="1134433961#0"/>
    <trip id="veh115" type="veh_passenger" depart="409.12" departLane="best" from="311366768" to="-549008000#0"/>
    <trip id="veh116" type="veh_passenger" depart="412.67" departLane="best" departSpeed="max" from="-42340646#1" to="36972185"/>
    <trip id="veh117" type="veh_passenger" depart="416.23" departLane="best" departSpeed="max" from="-140617248" to="-140609509#1"/>
    <trip id="veh118" type="veh_passenger" depart="419.79" departLane="best" from="984386883" to="979356569"/>
    <trip id="veh119" type="veh_passenger" depart="423.35" departLane="best" departSpeed="max" from="-140617248" to="-36957244#0"/>
    <trip id="veh120" type="veh_passenger" depart="426.90" departLane="best" departSpeed="max" from="-36963829#1" to="777538785"/>
    <trip id="veh121" type="veh_passenger" depart="430.46" departLane="best" from="1078784915" to="549008078"/>
    <trip id="veh122" type="veh_passenger" depart="434.02" departLane="best" from="-549008067" to="-250439771"/>
    <trip id="veh123" type="veh_passenger" depart="437.58" departLane="best" from="42340652" to="36963211#1"/>
    <trip id="veh124" type="veh_passenger" depart="441.13" departLane="best" from="249278477#0" to="42340652"/>
    <trip id="veh125" type="veh_passenger" depart="444.69" departLane="best" departSpeed="max" from="285555134" to="-1126877651#0"/>
    <trip id="veh126" type="veh_passenger" depart="448.25" departLane="best" from="-42340641#1" to="548822460#0"/>
    <trip id="veh127" type="veh_passenger" depart="451.81" departLane="best" from="288875956#0" to="777538793"/>
    <trip id="veh128" type="veh_passenger" depart="455.36" departLane="best" departSpeed="max" from="-249165235" to="-237207825"/>
    <trip id="veh129" type="veh_passenger" depart="458.92" departLane="best" from="237365954" to="249165236#1"/>
    <trip id="veh130" type="veh_passenger" depart="462.48" departLane="best" from="-36964170#1" to="288875954#0"/>
    <trip id="veh131" type="veh_passenger" depart="466.04" departLane="best" departSpeed="max" from="36957244#0" to="-36957012#0"/>
    <trip id="veh132" type="veh_passenger" depart="469.59" departLane="best" from="250189839#0" to="-42340627"/>
    <trip id="veh133" type="veh_passenger" depart="473.15" departLane="best" from="1187945161" to="549118415#2"/>
    <trip id="veh134" type="veh_passenger" depart="476.71" departLane="best" from="437406387#0" to="150031801#0"/>
    <trip id="veh135" type="veh_passenger" depart="480.27" departLane="best" from="1043579719" to="42340642#0"/>
    <trip id="veh136" type="veh_passenger" depart="483.82" departLane="best" departSpeed="max" from="-1016548687" to="42340613#0"/>
    <trip id="veh137" type="veh_passenger" depart="487.38" departLane="best" departSpeed="max" from="250439771" to="42340608"/>
    <trip id="veh138" type="veh_passenger" depart="490.94" departLane="best" from="36963211#0" to="249165235"/>
    <trip id="veh139" type="veh_passenger" depart="494.50" departLane="best" from="1046107949" to="1132700068"/>
    <trip id="veh140" type="veh_passenger" depart="498.05" departLane="best" from="-140617521#0" to="549008081"/>
    <trip id="veh141" type="veh_passenger" depart="501.61" departLane="best" from="549118385" to="249165234"/>
    <trip id="veh142" type="veh_passenger" depart="505.17" departLane="best" from="42340653#0" to="249487855"/>
    <trip id="veh143" type="veh_passenger" depart="508.73" departLane="best" departSpeed="max" from="-42340644#1" to="549118404#1"/>
    <trip id="veh144" type="veh_passenger" depart="512.28" departLane="best" from="-42340613#1" to="549008054"/>
    <trip id="veh145" type="veh_passenger" depart="515.84" departLane="best" from="549008083#0" to="-36957244#0"/>
    <trip id="veh146" type="veh_passenger" depart="519.40" departLane="best" departSpeed="max" from="-36963211#1" to="-168324532#0"/>
    <trip id="veh147" type="veh_passenger" depart="522.96" departLane="best" departSpeed="max" from="36989627" to="549008083#0"/>
    <trip id="veh148" type="veh_passenger" depart="526.51" departLane="best" departSpeed="max" from="-894887827" to="311366767"/>
    <trip id="veh149" type="veh_passenger" depart="530.07" departLane="best" departSpeed="max" from="-249487853" to="777538781"/>
    <trip id="veh150" type="veh_passenger" depart="533.63" departLane="best" from="-549008035" to="894887828"/>
    <trip id="veh151" type="veh_passenger" depart="537.19" departLane="best" from="42340634" to="549008080"/>
    <trip id="veh152" type="veh_passenger" depart="540.74" departLane="best" from="-438404111#1" to="777538783"/>
    <trip id="veh153" type="veh_passenger" depart="544.30" departLane="best" departSpeed="max" from="42340628#0" to="549008055"/>
    <trip id="veh154" type="veh_passenger" depart="547.86" departLane="best" from="42340634" to="-42340627"/>
    <trip id="veh155" type="veh_passenger" depart="551.42" departLane="best" from="549008048#1" to="549008051"/>
    <trip id="veh156" type="veh_passenger" depart="554.97" departLane="best" departSpeed="max" from="-36957011#1" to="437406387#0"/>
    <trip id="veh157" type="veh_passenger" depart="558.53" departLane="best" from="1134324426#1" to="-549008039#1"/>
    <trip id="veh158" type="veh_passenger" depart="562.09" departLane="best" from="42340609" to="36963456#2"/>
    <trip id="veh159" type="veh_passenger" depart="565.65" departLane="best" from="-1187945158" to="-36956854"/>
    <trip id="veh160" type="veh_passenger" depart="569.20" departLane="best" from="-437406387#2" to="-549008056"/>
    <trip id="veh161" type="veh_passenger" depart="572.76" departLane="best" from="778096187" to="-42340644#0"/>
    <trip id="veh162" type="veh_passenger" depart="576.32" departLane="best" from="-250475307" to="1134433968#0"/>
    <trip id="veh163" type="veh_passenger" depart="579.88" departLane="best" from="951209983" to="249165228"/>
    <trip id="veh165" type="veh_passenger" depart="586.99" departLane="best" from="792662761" to="-311366766#0"/>
    <trip id="veh166" type="veh_passenger" depart="590.55" departLane="best" from="778096183" to="-42340627"/>
    <trip id="veh167" type="veh_passenger" depart="594.11" departLane="best" from="36957697#0" to="-549008056"/>
    <trip id="veh168" type="veh_passenger" depart="597.66" departLane="best" departSpeed="max" from="249176876#0" to="186938890#0"/>
    <trip id="veh169" type="veh_passenger" depart="601.22" departLane="best" from="-549118415#2" to="249487853"/>
    <trip id="veh170" type="veh_passenger" depart="604.78" departLane="best" from="-36963794#1" to="36963455#0"/>
    <trip id="veh171" type="veh_passenger" depart="608.34" departLane="best" departSpeed="max" from="-1016548687" to="777538770"/>
    <trip id="veh172" type="veh_passenger" depart="611.89" departLane="best" departSpeed="max" from="149129002" to="36963827"/>
    <trip id="veh173" type="veh_passenger" depart="615.45" departLane="best" from="36963456#2" to="36957012#1"/>
    <trip id="veh174" type="veh_passenger" depart="619.01" departLane="best" from="-549008048#0" to="-140617520"/>
    <trip id="veh175" type="veh_passenger" depart="622.57" departLane="best" from="288875956#1" to="549118415#0"/>
    <trip id="veh176" type="veh_passenger" depart="626.12" departLane="best" departSpeed="max" from="-42340646#1" to="549008000#0"/>
    <trip id="veh177" type="veh_passenger" depart="629.68" departLane="best" departSpeed="max" from="36957244#0" to="549008000#0"/>
    <trip id="veh178" type="veh_passenger" depart="633.24" departLane="best" from="42340645#0" to="-1152230290#1"/>
    <trip id="veh179" type="veh_passenger" depart="636.80" departLane="best" departSpeed="max" from="-794939789" to="459849387"/>
    <trip id="veh180" type="veh_passenger" depart="640.35" departLane="best" departSpeed="max" from="-249165232" to="1189727142#0"/>
    <trip id="veh181" type="veh_passenger" depart="643.91" departLane="best" from="769716780" to="36957241"/>
    <trip id="veh182" type="veh_passenger" depart="647.47" departLane="best" from="549118385" to="311366765"/>
    <trip id="veh183" type="veh_passenger" depart="651.03" departLane="best" from="-42340641#1" to="249165234"/>
    <trip id="veh184" type="veh_passenger" depart="654.58" departLane="best" departSpeed="max" from="-1016548687" to="42340654"/>
    <trip id="veh185" type="veh_passenger" depart="658.14" departLane="best" from="1046109806#0" to="249487855"/>
    <trip id="veh186" type="veh_passenger" depart="661.70" departLane="best" departSpeed="max" from="285555134" to="140609539"/>
    <trip id="veh187" type="veh_passenger" depart="665.26" departLane="best" from="1078784916" to="-36957244#1"/>
    <trip id="veh188" type="veh_passenger" depart="668.81" departLane="best" from="-42336836#0" to="288875955#0"/>
    <trip id="veh189" type="veh_passenger" depart="672.37" departLane="best" from="-42340613#1" to="-252242443"/>
    <trip id="veh190" type="veh_passenger" depart="675.93" departLane="best" from="150031799#2" to="194296246"/>
    <trip id="veh191" type="veh_passenger" depart="679.49" departLane="best" departSpeed="max" from="250078902" to="-549118422#1"/>
    <trip id="veh192" type="veh_passenger" depart="683.04" departLane="best" from="-42340642#1" to="-36972184"/>
    <trip id="veh193" type="veh_passenger" depart="686.60" departLane="best" from="311366769" to="953233298"/>
    <trip id="veh194" type="veh_passenger" depart="690.16" departLane="best" from="-319023546#0" to="-1152543589#0"/>
    <trip id="veh195" type="veh_passenger" depart="693.72" departLane="best" from="-36957697#4" to="140617248"/>
    <trip id="veh196" type="veh_passenger" depart="697.27" departLane="best" from="437412804" to="140617521#1"/>
    <trip id="veh197" type="veh_passenger" depart="700.83" departLane="best" departSpeed="max" from="-894887828" to="319023535#1"/>
    <trip id="veh198" type="veh_passenger" depart="704.39" departLane="best" from="319023527#0" to="36961382#2"/>
    <trip id="veh199" type="veh_passenger" depart="707.95" departLane="best" from="1236950840" to="-36964174"/>
    <trip id="veh200" type="veh_passenger" depart="711.50" departLane="best" departSpeed="max" from="285555134" to="-1126877651#0"/>
    <trip id="veh201" type="veh_passenger" depart="715.06" departLane="best" from="36963793" to="42340609"/>
    <trip id="veh202" type="veh_passenger" depart="718.62" departLane="best" from="-237264805#1" to="1202362037"/>
    <trip id="veh203" type="veh_passenger" depart="722.18" departLane="best" from="250189839#0" to="792723120#1"/>
    <trip id="veh204" type="veh_passenger" depart="725.73" departLane="best" from="140609509#0" to="-1261923927#1"/>
    <trip id="veh205" type="veh_passenger" depart="729.29" departLane="best" departSpeed="max" from="-36963211#1" to="549008000#1"/>
    <trip id="veh206" type="veh_passenger" depart="732.85" departLane="best" from="-1132700068" to="42340650"/>
    <trip id="veh207" type="veh_passenger" depart="736.41" departLane="best" from="309558589#0" to="974006864"/>
    <trip id="veh208" type="veh_passenger" depart="739.96" departLane="best" from="237440380" to="780000809"/>
    <trip id="veh209" type="veh_passenger" depart="743.52" departLane="best" from="-549008074" to="309558589#1"/>
    <trip id="veh210" type="veh_passenger" depart="747.08" departLane="best" departSpeed="max" from="36957244#0" to="-168324532#1"/>
    <trip id="veh211" type="veh_passenger" depart="750.64" departLane="best" from="42340649" to="249165234"/>
    <trip id="veh212" type="veh_passenger" depart="754.19" departLane="best" from="-549008081" to="-36964173"/>
    <trip id="veh213" type="veh_passenger" depart="757.75" departLane="best" from="1152230290#2" to="-39122228"/>
    <trip id="veh214" type="veh_passenger" depart="761.31" departLane="best" departSpeed="max" from="-36963211#1" to="319023546#2"/>
    <trip id="veh215" type="veh_passenger" depart="764.87" departLane="best" from="36964172#0" to="237264805#1"/>
    <trip id="veh216" type="veh_passenger" depart="768.42" departLane="best" departSpeed="max" from="249826562" to="-42340628#3"/>
    <trip id="veh217" type="veh_passenger" depart="771.98" departLane="best" departSpeed="max" from="-140617521#2" to="-36964174"/>
    <trip id="veh218" type="veh_passenger" depart="775.54" departLane="best" from="-36964170#0" to="549008071"/>
    <trip id="veh219" type="veh_passenger" depart="779.10" departLane="best" departSpeed="max" from="149129002" to="-249321779"/>
    <trip id="veh220" type="veh_passenger" depart="782.65" departLane="best" from="36957240#1" to="36961382#1"/>
    <trip id="veh221" type="veh_passenger" depart="786.21" departLane="best" from="36957009#4" to="-140617250"/>
    <trip id="veh222" type="veh_passenger" depart="789.77" departLane="best" departSpeed="max" from="-894887827" to="249165232"/>
    <trip id="veh223" type="veh_passenger" depart="793.33" departLane="best" from="-896552241" to="-36957242#0"/>
    <trip id="veh224" type="veh_passenger" depart="796.89" departLane="best" from="1030991931" to="549118415#2"/>
    <trip id="veh225" type="veh_passenger" depart="800.44" departLane="best" departSpeed="max" from="237207823" to="36961382#2"/>
    <trip id="veh226" type="veh_passenger" depart="804.00" departLane="best" from="439667057#1" to="42336836#1"/>
    <trip id="veh227" type="veh_passenger" depart="807.56" departLane="best" from="-549008085" to="-1126877651#0"/>
    <trip id="veh228" type="veh_passenger" depart="811.12" departLane="best" departSpeed="max" from="-548823272" to="36972186#0"/>
    <trip id="veh229" type="veh_passenger" depart="814.67" departLane="best" from="-438404111#1" to="549118388"/>
    <trip id="veh230" type="veh_passenger" depart="818.23" departLane="best" from="1016548685" to="36964176"/>
    <trip id="veh231" type="veh_passenger" depart="821.79" departLane="best" departSpeed="max" from="149130368" to="288875953#0"/>
    <trip id="veh232" type="veh_passenger" depart="825.35" departLane="best" departSpeed="max" from="-36957011#1" to="-36957422"/>
    <trip id="veh233" type="veh_passenger" depart="828.90" departLane="best" from="1073047159#0" to="-1187945158"/>
    <trip id="veh234" type="veh_passenger" depart="832.46" departLane="best" departSpeed="max" from="-794939789" to="-251450284#0"/>
    <trip id="veh235" type="veh_passenger" depart="836.02" departLane="best" from="1134433968#0" to="-248971812"/>
    <trip id="veh236" type="veh_passenger" depart="839.58" departLane="best" from="249487862#3" to="42340664"/>