<?xml version="1.0" encoding="UTF-8"?>

<!-- generated on 2024-04-14 21:48:03.512818 by osmWebWizard.py v1_19_0+0000-baa66a0f364
<configuration>
    <net-file value="D:\!! Projekty\magister\2024-04-14-21-47-53\osm.net.xml.gz"/>
    <output-trip-file value="D:\!! Projekty\magister\2024-04-14-21-47-53\osm.truck.trips.xml"/>
    <route-file value="D:\!! Projekty\magister\2024-04-14-21-47-53\osm.truck.rou.xml"/>
    <prefix value="truck"/>
    <trip-attributes value="departLane=&quot;best&quot;"/>
    <fringe-start-attributes value="departSpeed=&quot;max&quot;"/>
    <vehicle-class value="truck"/>
    <fringe-factor value="5"/>
    <vclass value="truck"/>
    <via-edge-types value="highway.motorway,highway.motorway_link,highway.trunk_link,highway.primary_link,highway.secondary_link,highway.tertiary_link"/>
    <min-distance value="600.0"/>
    <min-distance.fringe value="10.0"/>
    <remove-loops value="True"/>
    <validate value="True"/>
    <insertion-density value="8.0"/>
</configuration>
-->

<!-- generated on 2024-04-14 21:48:03 by Eclipse SUMO duarouter Version 1.19.0
<configuration xmlns:xsi="http://www.w3.org/2001/XMLSchema-instance" xsi:noNamespaceSchemaLocation="http://sumo.dlr.de/xsd/duarouterConfiguration.xsd">

    <input>
        <net-file value="D:\!! Projekty\magister\2024-04-14-21-47-53\osm.net.xml.gz"/>
        <route-files value="D:\!! Projekty\magister\2024-04-14-21-47-53\osm.truck.trips.xml"/>
    </input>

    <output>
        <output-file value="D:\!! Projekty\magister\2024-04-14-21-47-53\osm.truck.trips.xml.tmp"/>
        <alternatives-output value="NUL"/>
        <write-trips value="true"/>
    </output>

    <processing>
        <remove-loops value="true"/>
    </processing>

    <time>
        <begin value="0.0"/>
        <end value="3600.0"/>
    </time>

    <report>
        <no-warnings value="true"/>
        <ignore-errors value="true"/>
        <no-step-log value="true"/>
    </report>

</configuration>
-->

<routes xmlns:xsi="http://www.w3.org/2001/XMLSchema-instance" xsi:noNamespaceSchemaLocation="http://sumo.dlr.de/xsd/routes_file.xsd">
    <vType id="truck_truck" vClass="truck"/>
    <trip id="truck0" type="truck_truck" depart="0.00" departLane="best" from="249487850" to="-1152543589#0"/>
    <trip id="truck1" type="truck_truck" depart="5.34" departLane="best" from="-36963827" to="-36957243#1"/>
    <trip id="truck2" type="truck_truck" depart="10.67" departLane="best" from="-549008043#2" to="-149130368"/>
    <trip id="truck3" type="truck_truck" depart="16.01" departLane="best" departSpeed="max" from="-792723120#1" to="-1187945158"/>
    <trip id="truck4" type="truck_truck" depart="21.35" departLane="best" departSpeed="max" from="-319023546#2" to="-150031801#0"/>
    <trip id="truck5" type="truck_truck" depart="26.68" departLane="best" from="-1187945160" to="319023535#1"/>
    <trip id="truck6" type="truck_truck" depart="32.02" departLane="best" departSpeed="max" from="249826562" to="249165227"/>
    <trip id="truck7" type="truck_truck" depart="37.35" departLane="best" from="-319023554" to="249487848#1"/>
    <trip id="truck8" type="truck_truck" depart="42.69" departLane="best" departSpeed="max" from="36989627" to="36957242#1"/>
    <trip id="truck9" type="truck_truck" depart="48.03" departLane="best" departSpeed="max" from="-42340646#1" to="-249826562"/>
    <trip id="truck10" type="truck_truck" depart="53.36" departLane="best" from="777538785" to="549008070"/>
    <trip id="truck11" type="truck_truck" depart="58.70" departLane="best" from="-150031801#0" to="-150031800#0"/>
    <trip id="truck12" type="truck_truck" depart="64.04" departLane="best" from="42340645#2" to="249487862#2"/>
    <trip id="truck13" type="truck_truck" depart="69.37" departLane="best" from="39122228" to="311367029#1"/>
    <trip id="truck14" type="truck_truck" depart="74.71" departLane="best" from="140609514#1" to="894887827"/>
    <trip id="truck15" type="truck_truck" depart="80.04" departLane="best" from="-549008000#0" to="249165228"/>
    <trip id="truck16" type="truck_truck" depart="85.38" departLane="best" from="-42340628#3" to="250189839#1"/>
    <trip id="truck17" type="truck_truck" depart="90.72" departLane="best" from="42340655#1" to="249278477#0"/>
    <trip id="truck18" type="truck_truck" depart="96.05" departLane="best" from="-237382756" to="1256732279"/>
    <trip id="truck19" type="truck_truck" depart="101.39" departLane="best" from="36957009#3" to="-42340628#0"/>
    <trip id="truck20" type="truck_truck" depart="106.73" departLane="best" from="251450284#1" to="-36957422"/>
    <trip id="truck21" type="truck_truck" depart="112.06" departLane="best" from="249321779" to="780000809"/>
    <trip id="truck22" type="truck_truck" depart="117.40" departLane="best" departSpeed="max" from="-548822460#1" to="-36957009#3"/>
    <trip id="truck23" type="truck_truck" depart="122.73" departLane="best" departSpeed="max" from="-36963211#1" to="777538785"/>
    <trip id="truck24" type="truck_truck" depart="128.07" departLane="best" departSpeed="max" from="249826562" to="249496948"/>
    <trip id="truck25" type="truck_truck" depart="133.41" departLane="best" departSpeed="max" from="149129002" to="-36957012#0"/>
    <trip id="truck26" type="truck_truck" depart="138.74" departLane="best" from="42340643" to="36972189#0"/>
    <trip id="truck27" type="truck_truck" depart="144.08" departLane="best" from="36957009#4" to="-1187945160"/>
    <trip id="truck28" type="truck_truck" depart="149.42" departLane="best" from="39122228" to="36972186#2"/>
    <trip id="truck29" type="truck_truck" depart="154.75" departLane="best" from="-549008081" to="1256732289"/>
    <trip id="truck30" type="truck_truck" depart="160.09" departLane="best" departSpeed="max" from="-36963211#1" to="-36963794#2"/>
    <trip id="truck31" type="truck_truck" depart="165.42" departLane="best" departSpeed="max" from="168324532#0" to="549008081"/>
    <trip id="truck32" type="truck_truck" depart="170.76" departLane="best" from="-1261923927#0" to="155281468"/>
    <trip id="truck33" type="truck_truck" depart="176.10" departLane="best" from="150031799#2" to="1256732280"/>
    <trip id="truck34" type="truck_truck" depart="181.43" departLane="best" from="-36964182" to="-1152543589#1"/>
    <trip id="truck35" type="truck_truck" depart="186.77" departLane="best" departSpeed="max" from="-140609539" to="1030991935"/>
    <trip id="truck36" type="truck_truck" depart="192.11" departLane="best" from="979356570" to="194355534"/>
    <trip id="truck37" type="truck_truck" depart="197.44" departLane="best" from="778096187" to="548822460#1"/>
    <trip id="truck38" type="truck_truck" depart="202.78" departLane="best" from="288875953#0" to="237372672"/>
    <trip id="truck39" type="truck_truck" depart="208.12" departLane="best" departSpeed="max" from="-36963211#1" to="311367029#0"/>
    <trip id="truck40" type="truck_truck" depart="213.45" departLane="best" from="-194355536" to="1202362037"/>
    <trip id="truck41" type="truck_truck" depart="218.79" departLane="best" from="1046109807" to="780000809"/>
    <trip id="truck42" type="truck_truck" depart="224.12" departLane="best" from="-1187945158" to="-252242443"/>
    <trip id="truck43" type="truck_truck" depart="229.46" departLane="best" from="-549008080" to="549008000#1"/>
    <trip id="truck44" type="truck_truck" depart="234.80" departLane="best" from="237257498" to="-249826562"/>
    <trip id="truck45" type="truck_truck" depart="240.13" departLane="best" from="36964165#2" to="194355536"/>
    <trip id="truck46" type="truck_truck" depart="245.47" departLane="best" departSpeed="max" from="-1016548687" to="-549008036"/>
    <trip id="truck48" type="truck_truck" depart="256.14" departLane="best" from="439667057#1" to="42340664"/>
    <trip id="truck49" type="truck_truck" depart="261.48" departLane="best" from="439667057#0" to="778096183"/>
    <trip id="truck50" type="truck_truck" depart="266.81" departLane="best" departSpeed="max" from="-140617521#2" to="-140614083"/>
    <trip id="truck51" type="truck_truck" depart="272.15" departLane="best" departSpeed="max" from="-140614074" to="-36964172#2"/>
    <trip id="truck52" type="truck_truck" depart="277.49" departLane="best" from="36963456#2" to="237382742#0"/>
    <trip id="truck53" type="truck_truck" depart="282.82" departLane="best" departSpeed="max" from="1126877651#0" to="249165228"/>
    <trip id="truck54" type="truck_truck" depart="288.16" departLane="best" departSpeed="max" from="-36963211#1" to="-549008036"/>
    <trip id="truck55" type="truck_truck" depart="293.50" departLane="best" departSpeed="max" from="-792723120#1" to="36957009#5"/>
    <trip id="truck56" type="truck_truck" depart="298.83" departLane="best" from="140614062" to="36963790"/>
    <trip id="truck57" type="truck_truck" depart="304.17" departLane="best" departSpeed="max" from="-311366765" to="-438404111#0"/>
    <trip id="truck58" type="truck_truck" depart="309.50" departLane="best" from="979356569" to="319023546#2"/>
    <trip id="truck59" type="truck_truck" depart="314.84" departLane="best" departSpeed="max" from="-894887828" to="168324530"/>
    <trip id="truck60" type="truck_truck" depart="320.18" departLane="best" from="-249087039" to="-36957244#0"/>
    <trip id="truck61" type="truck_truck" depart="325.51" departLane="best" departSpeed="max" from="-42340646#1" to="-249487848#0"/>
    <trip id="truck62" type="truck_truck" depart="330.85" departLane="best" departSpeed="max" from="-140614074" to="311366764"/>
    <trip id="truck63" type="truck_truck" depart="336.19" departLane="best" from="36957009#4" to="549118395"/>
    <trip id="truck64" type="truck_truck" depart="341.52" departLane="best" from="42340654" to="-140617250"/>
    <trip id="truck65" type="truck_truck" depart="346.86" departLane="best" from="-319023546#1" to="-248971812"/>
    <trip id="truck66" type="truck_truck" depart="352.19" departLane="best" departSpeed="max" from="549150573" to="249165238"/>
    <trip id="truck67" type="truck_truck" depart="357.53" departLane="best" departSpeed="max" from="1126877651#0" to="42336793"/>
    <trip id="truck68" type="truck_truck" depart="362.87" departLane="best" from="39122228" to="-288875956#2"/>
    <trip id="truck69" type="truck_truck" depart="368.20" departLane="best" departSpeed="max" from="-155281468" to="1189727142#1"/>
    <trip id="truck70" type="truck_truck" depart="373.54" departLane="best" departSpeed="max" from="-792723120#1" to="-249278477#1"/>
    <trip id="truck71" type="truck_truck" depart="378.88" departLane="best" from="953233298" to="-150031800#1"/>
    <trip id="truck72" type="truck_truck" depart="384.21" departLane="best" from="250475307" to="1255589939"/>
    <trip id="truck73" type="truck_truck" depart="389.55" departLane="best" departSpeed="max" from="-792723120#1" to="-42336836#0"/>
    <trip id="truck74" type="truck_truck" depart="394.88" departLane="best" departSpeed="max" from="-36957241" to="769459831"/>
    <trip id="truck75" type="truck_truck" depart="400.22" departLane="best" departSpeed="max" from="140617520" to="-1256732289"/>
    <trip id="truck76" type="truck_truck" depart="405.56" departLane="best" from="984504991" to="431657174"/>
    <trip id="truck77" type="truck_truck" depart="410.89" departLane="best" from="778096184" to="769459831"/>
    <trip id="truck78" type="truck_truck" depart="416.23" departLane="best" from="42340645#3" to="-250189839#1"/>
    <trip id="truck79" type="truck_truck" depart="421.57" departLane="best" from="1134433968#2" to="-36957009#7"/>
    <trip id="truck80" type="truck_truck" depart="426.90" departLane="best" from="-549008084" to="140609508#1"/>
    <trip id="truck81" type="truck_truck" depart="432.24" departLane="best" from="-549008000#1" to="-962287508"/>
    <trip id="truck82" type="truck_truck" depart="437.58" departLane="best" departSpeed="max" from="-36963211#1" to="42336793"/>
    <trip id="truck83" type="truck_truck" depart="442.91" departLane="best" from="1046109808#0" to="1164247765"/>
    <trip id="truck84" type="truck_truck" depart="448.25" departLane="best" departSpeed="max" from="149129002" to="36963211#1"/>
    <trip id="truck85" type="truck_truck" depart="453.58" departLane="best" from="249278477#1" to="42340642#2"/>
    <trip id="truck86" type="truck_truck" depart="458.92" departLane="best" from="778096184" to="42340655#1"/>
    <trip id="truck87" type="truck_truck" depart="464.26" departLane="best" departSpeed="max" from="140617250" to="36963829#1"/>
    <trip id="truck88" type="truck_truck" depart="469.59" departLane="best" from="-140609508#0" to="249487845"/>
    <trip id="truck89" type="truck_truck" depart="474.93" departLane="best" from="1187945160" to="468490683"/>
    <trip id="truck90" type="truck_truck" depart="480.27" departLane="best" from="-249482986" to="792723120#1"/>
    <trip id="truck91" type="truck_truck" depart="485.60" departLane="best" from="251450284#1" to="-285555134"/>
    <trip id="truck92" type="truck_truck" depart="490.94" departLane="best" from="186938890#0" to="36957009#7"/>
    <trip id="truck93" type="truck_truck" depart="496.27" departLane="best" departSpeed="max" from="-36957011#1" to="-237207823"/>
    <trip id="truck94" type="truck_truck" depart="501.61" departLane="best" from="549008039#0" to="-36963794#2"/>
    <trip id="truck95" type="truck_truck" depart="506.95" departLane="best" from="186938889" to="250475307"/>
    <trip id="truck96" type="truck_truck" depart="512.28" departLane="best" from="-1256732288" to="777538783"/>
    <trip id="truck97" type="truck_truck" depart="517.62" departLane="best" departSpeed="max" from="252242443" to="-42340645#1"/>
    <trip id="truck98" type="truck_truck" depart="522.96" departLane="best" from="-42336836#0" to="-36964166#0"/>
    <trip id="truck99" type="truck_truck" depart="528.29" departLane="best" departSpeed="max" from="-140614074" to="1256732289"/>
    <trip id="truck100" type="truck_truck" depart="533.63" departLane="best" from="984386883" to="979356570"/>
    <trip id="truck101" type="truck_truck" depart="538.96" departLane="best" departSpeed="max" from="-140614074" to="-36957009#6"/>
    <trip id="truck102" type="truck_truck" depart="544.30" departLane="best" departSpeed="max" from="-36963211#1" to="777538781"/>
    <trip id="truck103" type="truck_truck" depart="549.64" departLane="best" from="468490215#0" to="549008051"/>
    <trip id="truck104" type="truck_truck" depart="554.97" departLane="best" departSpeed="max" from="-548822460#1" to="-249923334"/>
    <trip id="truck105" type="truck_truck" depart="560.31" departLane="best" from="42340634" to="-36957243#0"/>
    <trip id="truck106" type="truck_truck" depart="565.65" departLane="best" from="237372672" to="962307427#1"/>
    <trip id="truck107" type="truck_truck" depart="570.98" departLane="best" departSpeed="max" from="250078902" to="-1126877651#0"/>
    <trip id="truck108" type="truck_truck" depart="576.32" departLane="best" from="-42340613#1" to="-42340645#0"/>
    <trip id="truck109" type="truck_truck" depart="581.65" departLane="best" from="250475307" to="777538786"/>
    <trip id="truck110" type="truck_truck" depart="586.99" departLane="best" departSpeed="max" from="-249165232" to="-168324533#2"/>
    <trip id="truck111" type="truck_truck" depart="592.33" departLane="best" from="-168324533#0" to="249165229"/>
    <trip id="truck112" type="truck_truck" depart="597.66" departLane="best" departSpeed="max" from="36956854" to="331657131"/>
    <trip id="truck113" type="truck_truck" depart="603.00" departLane="best" from="249321778" to="36972185"/>
    <trip id="truck114" type="truck_truck" depart="608.34" departLane="best" from="1152230290#1" to="549118395"/>
    <trip id="truck115" type="truck_truck" depart="613.67" departLane="best" departSpeed="max" from="-792723120#1" to="-36989627"/>
    <trip id="truck116" type="truck_truck" depart="619.01" departLane="best" departSpeed="max" from="-1016548687" to="36972184"/>
    <trip id="truck117" type="truck_truck" depart="624.35" departLane="best" departSpeed="max" from="-794939789" to="1132700068"/>
    <trip id="truck118" type="truck_truck" depart="629.68" departLane="best" departSpeed="max" from="-140617248" to="549008055"/>
    <trip id="truck119" type="truck_truck" depart="635.02" departLane="best" from="42340636" to="249482986"/>
    <trip id="truck120" type="truck_truck" depart="640.35" departLane="best" departSpeed="max" from="-249165238" to="237372672"/>
    <trip id="truck121" type="truck_truck" depart="645.69" departLane="best" from="-36972186#0" to="549008083#0"/>
    <trip id="truck122" type="truck_truck" depart="651.03" departLane="best" from="36972186#1" to="548822460#1"/>
    <trip id="truck123" type="truck_truck" depart="656.36" departLane="best" departSpeed="max" from="-36957241" to="-168324531"/>
    <trip id="truck124" type="truck_truck" depart="661.70" departLane="best" from="36964166#1" to="-549008056"/>
    <trip id="truck125" type="truck_truck" depart="667.04" departLane="best" from="-549118415#2" to="-140617249#0"/>
    <trip id="truck126" type="truck_truck" depart="672.37" departLane="best" from="-249278477#0" to="769716782"/>
    <trip id="truck127" type="truck_truck" depart="677.71" departLane="best" departSpeed="max" from="42373465" to="894887827"/>
    <trip id="truck128" type="truck_truck" depart="683.04" departLane="best" from="42336791" to="549008054"/>
    <trip id="truck129" type="truck_truck" depart="688.38" departLane="best" from="42340645#1" to="777538770"/>
    <trip id="truck130" type="truck_truck" depart="693.72" departLane="best" departSpeed="max" from="36989627" to="548823272"/>
    <trip id="truck131" type="truck_truck" depart="699.05" departLane="best" from="42336791" to="36972186#1"/>
    <trip id="truck132" type="truck_truck" depart="704.39" departLane="best" from="36964172#1" to="-168324532#0"/>
    <trip id="truck133" type="truck_truck" depart="709.73" departLane="best" from="437410804" to="548822460#0"/>
    <trip id="truck134" type="truck_truck" depart="715.06" departLane="best" from="-36956522#1" to="42340646#1"/>
    <trip id="truck135" type="truck_truck" depart="720.40" departLane="best" from="1078784913#0" to="-36964174"/>
    <trip id="truck136" type="truck_truck" depart="725.73" departLane="best" from="-36972186#0" to="-36957244#0"/>
    <trip id="truck137" type="truck_truck" depart="731.07" departLane="best" from="-1187945156" to="-311366768"/>
    <trip id="truck138" type="truck_truck" depart="736.41" departLane="best" departSpeed="max" from="-42340644#1" to="548823272"/>
    <trip id="truck139" type="truck_truck" depart="741.74" departLane="best" from="778096183" to="-42336836#0"/>
    <trip id="truck140" type="truck_truck" depart="747.08" departLane="best" from="249487862#1" to="1078784918#1"/>
    <trip id="truck141" type="truck_truck" depart="752.42" departLane="best" departSpeed="max" from="855615423" to="237372672"/>
    <trip id="truck142" type="truck_truck" depart="757.75" departLane="best" from="1134324426#1" to="-168324533#2"/>
    <trip id="truck143" type="truck_truck" depart="763.09" departLane="best" from="778096186" to="-252242443"/>
    <trip id="truck144" type="truck_truck" depart="768.42" departLane="best" from="777538792" to="36972186#0"/>
    <trip id="truck145" type="truck_truck" depart="773.76" departLane="best" from="-168324533#1" to="1202362037"/>
    <trip id="truck146" type="truck_truck" depart="779.10" departLane="best" from="36957009#6" to="438404111#1"/>
    <trip id="truck147" type="truck_truck" depart="784.43" departLane="best" departSpeed="max" from="237207823" to="155281468"/>
    <trip id="truck148" type="truck_truck" depart="789.77" departLane="best" from="36957243#0" to="36957697#3"/>
    <trip id="truck149" type="truck_truck" depart="795.11" departLane="best" departSpeed="max" from="-1016548687" to="769459831"/>
    <trip id="truck150" type="truck_truck" depart="800.44" departLane="best" from="140614038" to="36963211#1"/>
    <trip id="truck151" type="truck_truck" depart="805.78" departLane="best" departSpeed="max" from="-468490683" to="-140617250"/>
    <trip id="truck152" type="truck_truck" depart="811.12" departLane="best" from="250475307" to="1152230292"/>
    <trip id="truck153" type="truck_truck" depart="816.45" departLane="best" from="36972189#3" to="459849387"/>
    <trip id="truck154" type="truck_truck" depart="821.79" departLane="best" departSpeed="max" from="36956854" to="-42340645#1"/>
    <trip id="truck155" type="truck_truck" depart="827.12" departLane="best" from="-36972186#1" to="709217977#0"/>
    <trip id="truck156" type="truck_truck" depart="832.46" departLane="best" from="-549008085" to="42340642#0"/>
    <trip id="truck157" type="truck_truck" depart="837.80" departLane="best" departSpeed="max" from="-249165228" to="1152230292"/>
    <trip id="truck158" type="truck_truck" depart="843.13" departLane="best" from="1134324426#0" to="-36957010"/>
    <trip id="truck159" type="truck_truck" depart="848.47" departLane="best" departSpeed="max" from="-36964176" to="249165228"/>
    <trip id="truck160" type="truck_truck" depart="853.81" departLane="best" departSpeed="max" from="-1016548687" to="-42340627"/>
    <trip id="truck161" type="truck_truck" depart="859.14" departLane="best" departSpeed="max" from="-894887827" to="249321778"/>
    <trip id="truck162" type="truck_truck" depart="864.48" departLane="best" departSpeed="max" from="250078902" to="140609508#0"/>
    <trip id="truck163" type="truck_truck" depart="869.81" departLane="best" from="1237762219" to="-36957009#7"/>
    <trip id="truck164" type="truck_truck" depart="875.15" departLane="best" departSpeed="max" from="1126877651#0" to="549008085"/>
    <trip id="truck165" type="truck_truck" depart="880.49" departLane="best" from="-36972186#1" to="-250439771"/>
    <trip id="truck166" type="truck_truck" depart="885.82" departLane="best" departSpeed="max" from="-140617521#2" to="168324530"/>
    <trip id="truck167" type="truck_truck" depart="891.16" departLane="best" from="249278477#1" to="-549008067"/>
    <trip id="truck168" type="truck_truck" depart="896.50" departLane="best" departSpeed="max" from="42340627" to="36964165#2"/>
    <trip id="truck169" type="truck_truck" depart="901.83" departLane="best" departSpeed="max" from="252242443" to="-36957244#0"/>
    <trip id="truck170" type="truck_truck" depart="907.17" departLane="best" departSpeed="max" from="-311366765" to="-1152543589#0"/>
    <trip id="truck171" type="truck_truck" depart="912.50" departLane="best" departSpeed="max" from="-36957012#1" to="140609539"/>
    <trip id="truck172" type="truck_truck" depart="917.84" departLane="best" from="42340646#0" to="-140617520"/>
    <trip id="truck173" type="truck_truck" depart="923.18" departLane="best" departSpeed="max" from="-293246010" to="36957241"/>
    <trip id="truck174" type="truck_truck" depart="928.51" departLane="best" departSpeed="max" from="1152543589#0" to="-36963794#0"/>
    <trip id="truck175" type="truck_truck" depart="933.85" departLane="best" from="-250189837" to="-1126877651#0"/>
    <trip id="truck176" type="truck_truck" depart="939.19" departLane="best" from="36957697#1" to="36964182"/>
    <trip id="truck177" type="truck_truck" depart="944.52" departLane="best" departSpeed="max" from="-249496948" to="791651315"/>
    <trip id="truck178" type="truck_truck" depart="949.86" departLane="best" departSpeed="max" from="-36957241" to="459849387"/>
    <trip id="truck179" type="truck_truck" depart="955.19" departLane="best" departSpeed="max" from="251450284#0" to="962307428"/>
    <trip id="truck180" type="truck_truck" depart="960.53" departLane="best" from="549008039#2" to="249560919"/>
    <trip id="truck181" type="truck_truck" depart="965.87" departLane="best" departSpeed="max" from="36956854" to="-150031801#0"/>
    <trip id="truck182" type="truck_truck" depart="971.20" departLane="best" from="42340631" to="249165228"/>
    <trip id="truck183" type="truck_truck" depart="976.54" departLane="best" from="549008052" to="36963829#0"/>
    <trip id="truck184" type="truck_truck" depart="981.88" departLane="best" departSpeed="max" from="1126877651#0" to="-36964172#3"/>
    <trip id="truck185" type="truck_truck" depart="987.21" departLane="best" from="36957240#1" to="-311366767"/>
    <trip id="truck186" type="truck_truck" depart="992.55" departLane="best" departSpeed="max" from="249176876#0" to="-36989627"/>
    <trip id="truck187" type="truck_truck" depart="997.89" departLane="best" departSpeed="max" from="-140617248" to="-42340627"/>
    <trip id="truck188" type="truck_truck" depart="1003.22" departLane="best" from="-36963794#0" to="515865022"/>
    <trip id="truck189" type="truck_truck" depart="1008.56" departLane="best" from="140614070" to="-249165229"/>
    <trip id="truck190" type="truck_truck" depart="1013.89" departLane="best" from="328555672" to="-140614083"/>
    <trip id="truck191" type="truck_truck" depart="1019.23" departLane="best" from="-549118415#3" to="249165227"/>
    <trip id="truck192" type="truck_truck" depart="1024.57" departLane="best" departSpeed="max" from="-769459831" to="-36956854"/>
    <trip id="truck193" type="truck_truck" depart="1029.90" departLane="best" departSpeed="max" from="168324532#0" to="36957241"/>
    <trip id="truck194" type="truck_truck" depart="1035.24" departLane="best" from="42340652" to="36964176"/>
    <trip id="truck195" type="truck_truck" depart="1040.58" departLane="best" from="549008035" to="-1126877651#0"/>
    <trip id="truck196" type="truck_truck" depart="1045.91" departLane="best" from="437412745" to="36964168#0"/>
    <trip id="truck197" type="truck_truck" depart="1051.25" departLane="best" from="42340649" to="780000809"/>
    <trip id="truck198" type="truck_truck" depart="1056.58" departLane="best" from="-792723120#0" to="36963829#1"/>
    <trip id="truck199" type="truck_truck" depart="1061.92" departLane="best" departSpeed="max" from="140617250" to="249487862#2"/>
    <trip id="truck200" type="truck_truck" depart="1067.26" departLane="best" departSpeed="max" from="-42340646#1" to="-36957011#0"/>
    <trip id="truck201" type="truck_truck" depart="1072.59" departLane="best" from="-549118415#0" to="250189839#0"/>
    <trip id="truck202" type="truck_truck" depart="1077.93" departLane="best" from="1078784920" to="237372672"/>
    <trip id="truck203" type="truck_truck" depart="1083.27" departLane="best" from="249165229" to="-1152543589#1"/>
    <trip id="truck204" type="truck_truck" depart="1088.60" departLane="best" from="-549008071" to="249165235"/>
    <trip id="truck205" type="truck_truck" depart="1093.94" departLane="best" from="-1187945160" to="-319023527#0"/>
    <trip id="truck206" type="truck_truck" depart="1099.27" departLane="best" from="-1256732290" to="1030991932"/>
    <trip id="truck207" type="truck_truck" depart="1104.61" departLane="best" from="36963454#0" to="1030991932"/>
    <trip id="truck208" type="truck_truck" depart="1109.95" departLane="best" from="36957697#3" to="42340664"/>
    <trip id="truck209" type="truck_truck" depart="1115.28" departLane="best" departSpeed="max" from="-36957241" to="-149129002"/>
    <trip id="truck210" type="truck_truck" depart="1120.62" departLane="best" departSpeed="max" from="249826562" to="411763899#0"/>
    <trip id="truck211" type="truck_truck" depart="1125.96" departLane="best" departSpeed="max" from="250078902" to="36964168#0"/>
    <trip id="truck212" type="truck_truck" depart="1131.29" departLane="best" from="769716780" to="-319023542#1"/>
    <trip id="truck214" type="truck_truck" depart="1141.96" departLane="best" departSpeed="max" from="-249487853" to="249496948"/>
    <trip id="truck215" type="truck_truck" depart="1147.30" departLane="best" departSpeed="max" from="36957422" to="168324533#1"/>
    <trip id="truck216" type="truck_truck" depart="1152.64" departLane="best" from="-168324533#1" to="-1152543589#0"/>
    <trip id="truck217" type="truck_truck" depart="1157.97" departLane="best" from="777538787" to="549008057"/>
    <trip id="truck218" type="truck_truck" depart="1163.31" departLane="best" departSpeed="max" from="-168324530" to="36972185"/>
    <trip id="truck219" type="truck_truck" depart="1168.65" departLane="best" from="-42340647#0" to="249487855"/>
    <trip id="truck220" type="truck_truck" depart="1173.98" departLane="best" from="-249087039" to="953233298"/>
    <trip id="truck221" type="truck_truck" depart="1179.32" departLane="best" departSpeed="max" from="-794939789" to="-855615423"/>
    <trip id="truck222" type="truck_truck" depart="1184.65" departLane="best" from="-1189727142#0" to="549008080"/>
    <trip id="truck223" type="truck_truck" depart="1189.99" departLane="best" from="168324532#1" to="792723120#1"/>
    <trip id="truck224" type="truck_truck" depart="1195.33" departLane="best" from="249321779" to="42340655#0"/>
    <trip id="truck225" type="truck_truck" depart="1200.66" departLane="best" from="36957240#0" to="792723120#1"/>
    <trip id="truck226" type="truck_truck" depart="1206.00" departLane="best" from="-36963456#1" to="42340645#0"/>
    <trip id="truck227" type="truck_truck" depart="1211.34" departLane="best" departSpeed="max" from="-894887828" to="36963791#1"/>
    <trip id="truck228" type="truck_truck" depart="1216.67" departLane="best" from="42340631" to="-149130368"/>
    <trip id="truck229" type="truck_truck" depart="1222.01" departLane="best" from="468490215#1" to="36963794#0"/>
    <trip id="truck230" type="truck_truck" depart="1227.35" departLane="best" from="1078784918#0" to="249496948"/>
    <trip id="truck231" type="truck_truck" depart="1232.68" departLane="best" from="-42340647#0" to="-252242443"/>
    <trip id="truck232" type="truck_truck" depart="1238.02" departLane="best" departSpeed="max" from="-42340646#1" to="549008052"/>
    <trip id="truck233" type="truck_truck" depart="1243.35" departLane="best" from="1134433968#0" to="778096184"/>