<?xml version="1.0" encoding="UTF-8"?>

<!-- generated on 2024-03-21 20:47:46 by Eclipse SUMO netedit Version 1.19.0
<configuration xmlns:xsi="http://www.w3.org/2001/XMLSchema-instance" xsi:noNamespaceSchemaLocation="http://sumo.dlr.de/xsd/neteditConfiguration.xsd">

    <input>
        <sumocfg-file value="D:\SUMO2\RealMaps\Test\test_light.sumocfg"/>
        <sumo-net-file value="D:\SUMO2\RealMaps\Test\test_light.net.xml"/>
    </input>

    <processing>
        <offset.disable-normalization value="true"/>
    </processing>

    <junctions>
        <no-turnarounds value="true"/>
    </junctions>

    <netedit>
        <new-network value="false"/>
    </netedit>

</configuration>
-->

<tlLogics version="1.16" xmlns:xsi="http://www.w3.org/2001/XMLSchema-instance" xsi:noNamespaceSchemaLocation="http://sumo.dlr.de/xsd/tllogic_file.xsd">
    <tlLogic id="J1" type="actuated" programID="1" offset="0">
        <phase duration="42" state="GGGgrrrrGGGgrrrr" minDur="5" maxDur="50"/>
        <phase duration="3"  state="yyyyrrrryyyyrrrr"/>
        <phase duration="42" state="rrrrGGGgrrrrGGGg" minDur="5" maxDur="50"/>
        <phase duration="3"  state="rrrryyyyrrrryyyy"/>
    </tlLogic>

    <connection from="-E1" to="-E0" fromLane="0" toLane="0" tl="J1" linkIndex="4"/>
    <connection from="-E1" to="E3" fromLane="0" toLane="0" tl="J1" linkIndex="5"/>
    <connection from="-E1" to="E3" fromLane="1" toLane="1" tl="J1" linkIndex="6"/>
    <connection from="-E1" to="E2" fromLane="1" toLane="1" tl="J1" linkIndex="7"/>
    <connection from="-E2" to="E1" fromLane="0" toLane="0" tl="J1" linkIndex="8"/>
    <connection from="-E2" to="-E0" fromLane="0" toLane="0" tl="J1" linkIndex="9"/>
    <connection from="-E2" to="-E0" fromLane="1" toLane="1" tl="J1" linkIndex="10"/>
    <connection from="-E2" to="E3" fromLane="1" toLane="1" tl="J1" linkIndex="11"/>
    <connection from="-E3" to="E2" fromLane="0" toLane="0" tl="J1" linkIndex="12"/>
    <connection from="-E3" to="E1" fromLane="0" toLane="0" tl="J1" linkIndex="13"/>
    <connection from="-E3" to="E1" fromLane="1" toLane="1" tl="J1" linkIndex="14"/>
    <connection from="-E3" to="-E0" fromLane="1" toLane="1" tl="J1" linkIndex="15"/>
    <connection from="E0" to="E3" fromLane="0" toLane="0" tl="J1" linkIndex="0"/>
    <connection from="E0" to="E2" fromLane="0" toLane="0" tl="J1" linkIndex="1"/>
    <connection from="E0" to="E2" fromLane="1" toLane="1" tl="J1" linkIndex="2"/>
    <connection from="E0" to="E1" fromLane="1" toLane="1" tl="J1" linkIndex="3"/>
</tlLogics>
