<?xml version="1.0" encoding="UTF-8"?>

<!-- generated on 2024-03-21 20:47:46 by Eclipse SUMO netedit Version 1.19.0
<configuration xmlns:xsi="http://www.w3.org/2001/XMLSchema-instance" xsi:noNamespaceSchemaLocation="http://sumo.dlr.de/xsd/neteditConfiguration.xsd">

    <input>
        <sumocfg-file value="D:\SUMO2\RealMaps\Test\test_light.sumocfg"/>
        <sumo-net-file value="D:\SUMO2\RealMaps\Test\test_light.net.xml"/>
    </input>

    <processing>
        <offset.disable-normalization value="true"/>
    </processing>

    <junctions>
        <no-turnarounds value="true"/>
    </junctions>

    <netedit>
        <new-network value="false"/>
    </netedit>

</configuration>
-->

<connections version="1.16" xmlns:xsi="http://www.w3.org/2001/XMLSchema-instance" xsi:noNamespaceSchemaLocation="http://sumo.dlr.de/xsd/connections_file.xsd">
    <connection from="-E0"/>

    <connection from="-E1" to="-E0" fromLane="0" toLane="0"/>
    <connection from="-E1" to="E3" fromLane="0" toLane="0"/>
    <connection from="-E1" to="E3" fromLane="1" toLane="1"/>
    <connection from="-E1" to="E2" fromLane="1" toLane="1"/>

    <connection from="-E2" to="E1" fromLane="0" toLane="0"/>
    <connection from="-E2" to="-E0" fromLane="0" toLane="0"/>
    <connection from="-E2" to="-E0" fromLane="1" toLane="1"/>
    <connection from="-E2" to="E3" fromLane="1" toLane="1"/>

    <connection from="-E3" to="E2" fromLane="0" toLane="0"/>
    <connection from="-E3" to="E1" fromLane="0" toLane="0"/>
    <connection from="-E3" to="E1" fromLane="1" toLane="1"/>
    <connection from="-E3" to="-E0" fromLane="1" toLane="1"/>

    <connection from="E0" to="E3" fromLane="0" toLane="0"/>
    <connection from="E0" to="E2" fromLane="0" toLane="0"/>
    <connection from="E0" to="E2" fromLane="1" toLane="1"/>
    <connection from="E0" to="E1" fromLane="1" toLane="1"/>

    <connection from="E1"/>

    <connection from="E2"/>

    <connection from="E3"/>

</connections>
