<?xml version="1.0" encoding="UTF-8"?>

<!-- generated on 2024-03-21 20:46:38 by Eclipse SUMO sumo Version 1.19.0
-->

<configuration xmlns:xsi="http://www.w3.org/2001/XMLSchema-instance" xsi:noNamespaceSchemaLocation="http://sumo.dlr.de/xsd/sumoConfiguration.xsd">

    <input>
        <net-file value="test_light.net.xml"/>
        <route-files value="test_light.rou.xml"/>
        <additional-files value="test_light.add.xml"/>
    </input>

</configuration>
