<?xml version="1.0" encoding="UTF-8"?>

<!-- generated on 2024-03-21 20:46:38 by Eclipse SUMO netedit Version 1.19.0
<configuration xmlns:xsi="http://www.w3.org/2001/XMLSchema-instance" xsi:noNamespaceSchemaLocation="http://sumo.dlr.de/xsd/neteditConfiguration.xsd">

    <input>
        <sumocfg-file value="D:\SUMO2\RealMaps\Test\test_light.sumocfg"/>
        <sumo-net-file value="D:\SUMO2\RealMaps\Test\test_light.net.xml"/>
    </input>

    <output>
        <output-file value="D:\SUMO2\RealMaps\Test\test_light.net.xml"/>
    </output>

    <processing>
        <offset.disable-normalization value="true"/>
    </processing>

    <junctions>
        <no-turnarounds value="true"/>
    </junctions>

    <netedit>
        <new-network value="false"/>
    </netedit>

</configuration>
-->

<net version="1.16" junctionCornerDetail="5" limitTurnSpeed="5.50" xmlns:xsi="http://www.w3.org/2001/XMLSchema-instance" xsi:noNamespaceSchemaLocation="http://sumo.dlr.de/xsd/net_file.xsd">

    <location netOffset="0.00,0.00" convBoundary="-42.62,-36.37,111.88,91.75" origBoundary="10000000000.00,10000000000.00,-10000000000.00,-10000000000.00" projParameter="!"/>

    <edge id=":J_mid_0" function="internal">
        <lane id=":J_mid_0_0" index="0" speed="6.64" length="9.32" shape="24.15,36.04 23.79,33.53 22.71,31.72 20.91,30.61 18.38,30.21"/>
    </edge>
    <edge id=":J_mid_1" function="internal">
        <lane id=":J_mid_1_0" index="0" speed="13.89" length="20.95" shape="24.15,36.04 24.20,15.09"/>
        <lane id=":J_mid_1_1" index="1" speed="13.89" length="20.95" shape="27.35,36.04 27.40,15.10"/>
    </edge>
    <edge id=":J_mid_3" function="internal">
        <lane id=":J_mid_3_0" index="0" speed="9.25" length="5.08" shape="27.35,36.04 28.07,31.01"/>
    </edge>
    <edge id=":J_mid_16" function="internal">
        <lane id=":J_mid_16_0" index="0" speed="9.25" length="14.33" shape="28.07,31.01 28.10,30.77 30.37,27.02 34.14,24.79 39.41,24.08"/>
    </edge>
    <edge id=":J_mid_4" function="internal">
        <lane id=":J_mid_4_0" index="0" speed="6.49" length="9.03" shape="39.36,30.48 36.91,30.81 35.15,31.85 34.10,33.59 33.75,36.04"/>
    </edge>
    <edge id=":J_mid_5" function="internal">
        <lane id=":J_mid_5_0" index="0" speed="13.89" length="20.97" shape="39.36,30.48 18.38,30.21"/>
        <lane id=":J_mid_5_1" index="1" speed="13.89" length="20.97" shape="39.39,27.28 18.44,27.01"/>
    </edge>
    <edge id=":J_mid_7" function="internal">
        <lane id=":J_mid_7_0" index="0" speed="9.30" length="5.15" shape="39.39,27.28 34.29,26.51"/>
    </edge>
    <edge id=":J_mid_17" function="internal">
        <lane id=":J_mid_17_0" index="0" speed="9.30" length="14.32" shape="34.29,26.51 34.12,26.48 30.37,24.19 28.13,20.39 27.40,15.10"/>
    </edge>
    <edge id=":J_mid_8" function="internal">
        <lane id=":J_mid_8_0" index="0" speed="6.56" length="9.18" shape="33.80,15.13 34.14,17.63 35.19,19.42 36.96,20.50 39.44,20.88"/>
    </edge>
    <edge id=":J_mid_9" function="internal">
        <lane id=":J_mid_9_0" index="0" speed="13.89" length="20.92" shape="33.80,15.13 33.75,36.04"/>
        <lane id=":J_mid_9_1" index="1" speed="13.89" length="20.92" shape="30.60,15.12 30.55,36.04"/>
    </edge>
    <edge id=":J_mid_11" function="internal">
        <lane id=":J_mid_11_0" index="0" speed="9.24" length="4.93" shape="30.60,15.12 29.88,20.00"/>
    </edge>
    <edge id=":J_mid_18" function="internal">
        <lane id=":J_mid_18_0" index="0" speed="9.24" length="14.52" shape="29.88,20.00 29.82,20.40 27.53,24.14 23.74,26.35 18.44,27.01"/>
    </edge>
    <edge id=":J_mid_12" function="internal">
        <lane id=":J_mid_12_0" index="0" speed="6.48" length="9.03" shape="18.55,20.61 21.01,20.30 22.77,19.28 23.83,17.54 24.20,15.09"/>
    </edge>
    <edge id=":J_mid_13" function="internal">
        <lane id=":J_mid_13_0" index="0" speed="13.89" length="20.90" shape="18.55,20.61 39.44,20.88"/>
        <lane id=":J_mid_13_1" index="1" speed="13.89" length="20.90" shape="18.49,23.81 39.41,24.08"/>
    </edge>
    <edge id=":J_mid_15" function="internal">
        <lane id=":J_mid_15_0" index="0" speed="9.35" length="4.88" shape="18.49,23.81 23.31,24.58"/>
    </edge>
    <edge id=":J_mid_19" function="internal">
        <lane id=":J_mid_19_0" index="0" speed="9.35" length="14.63" shape="23.31,24.58 23.77,24.66 27.54,26.98 29.80,30.77 30.55,36.04"/>
    </edge>

    <edge id="-E0" from="J_mid" to="J_up" priority="-1">
        <lane id="-E0_0" index="0" speed="13.89" length="55.71" shape="33.75,36.04 33.75,91.75"/>
        <lane id="-E0_1" index="1" speed="13.89" length="55.71" shape="30.55,36.04 30.55,91.75"/>
    </edge>
    <edge id="-E1" from="J_right" to="J_mid" priority="-1">
        <lane id="-E1_0" index="0" speed="13.89" length="72.48" shape="111.84,31.03 39.36,30.48"/>
        <lane id="-E1_1" index="1" speed="13.89" length="72.48" shape="111.87,27.83 39.39,27.28"/>
    </edge>
    <edge id="-E2" from="J_down" to="J_mid" priority="-1">
        <lane id="-E2_0" index="0" speed="13.89" length="51.48" shape="34.01,-36.35 33.80,15.13"/>
        <lane id="-E2_1" index="1" speed="13.89" length="51.48" shape="30.81,-36.36 30.60,15.12"/>
    </edge>
    <edge id="-E3" from="J_left" to="J_mid" priority="-1">
        <lane id="-E3_0" index="0" speed="13.89" length="61.10" shape="-42.54,19.54 18.55,20.61"/>
        <lane id="-E3_1" index="1" speed="13.89" length="61.10" shape="-42.59,22.74 18.49,23.81"/>
    </edge>
    <edge id="E0" from="J_up" to="J_mid" priority="-1">
        <lane id="E0_0" index="0" speed="13.89" length="55.71" shape="24.15,91.75 24.15,36.04"/>
        <lane id="E0_1" index="1" speed="13.89" length="55.71" shape="27.35,91.75 27.35,36.04"/>
    </edge>
    <edge id="E1" from="J_mid" to="J_right" priority="-1" spreadType="roadCenter">
        <lane id="E1_0" index="0" speed="13.89" length="72.48" shape="39.44,20.88 111.92,21.43"/>
        <lane id="E1_1" index="1" speed="13.89" length="72.48" shape="39.41,24.08 111.89,24.63"/>
    </edge>
    <edge id="E2" from="J_mid" to="J_down" priority="-1">
        <lane id="E2_0" index="0" speed="13.89" length="51.48" shape="24.20,15.09 24.41,-36.39"/>
        <lane id="E2_1" index="1" speed="13.89" length="51.48" shape="27.40,15.10 27.61,-36.37"/>
    </edge>
    <edge id="E3" from="J_mid" to="J_left" priority="-1">
        <lane id="E3_0" index="0" speed="13.89" length="61.10" shape="18.38,30.21 -42.70,29.14"/>
        <lane id="E3_1" index="1" speed="13.89" length="61.10" shape="18.44,27.01 -42.65,25.94"/>
    </edge>

    <tlLogic id="J1" type="actuated" programID="1" offset="0">
        <phase duration="42" state="GGGgrrrrGGGgrrrr" minDur="5" maxDur="50"/>
        <phase duration="3"  state="yyyyrrrryyyyrrrr"/>
        <phase duration="42" state="rrrrGGGgrrrrGGGg" minDur="5" maxDur="50"/>
        <phase duration="3"  state="rrrryyyyrrrryyyy"/>
    </tlLogic>

    <junction id="J_down" type="dead_end" x="29.21" y="-36.37" incLanes="E2_0 E2_1" intLanes="" shape="29.21,-36.37 22.81,-36.39 29.21,-36.37"/>
    <junction id="J_left" type="dead_end" x="-42.62" y="24.34" incLanes="E3_0 E3_1" intLanes="" shape="-42.62,24.34 -42.73,30.74 -42.62,24.34"/>
    <junction id="J_mid" type="traffic_light" x="28.95" y="25.60" incLanes="E0_0 E0_1 -E1_0 -E1_1 -E2_0 -E2_1 -E3_0 -E3_1" intLanes=":J_mid_0_0 :J_mid_1_0 :J_mid_1_1 :J_mid_16_0 :J_mid_4_0 :J_mid_5_0 :J_mid_5_1 :J_mid_17_0 :J_mid_8_0 :J_mid_9_0 :J_mid_9_1 :J_mid_18_0 :J_mid_12_0 :J_mid_13_0 :J_mid_13_1 :J_mid_19_0" shape="22.55,36.04 35.35,36.04 35.80,33.83 36.35,33.05 37.13,32.50 38.13,32.18 39.35,32.08 39.45,19.28 37.19,18.80 36.40,18.23 35.84,17.42 35.50,16.39 35.40,15.14 22.60,15.08 22.14,17.30 21.58,18.07 20.80,18.61 19.80,18.92 18.58,19.01 18.35,31.81 20.69,32.31 21.50,32.91 22.08,33.73 22.43,34.77">
        <request index="0"  response="0000000000000000" foes="0000000001100000" cont="0"/>
        <request index="1"  response="1000000010000000" foes="1111100011100000" cont="0"/>
        <request index="2"  response="1000000010000000" foes="1111100011100000" cont="0"/>
        <request index="3"  response="1000011010000000" foes="1110011011100000" cont="1"/>
        <request index="4"  response="0000011000000000" foes="0000011000000000" cont="0"/>
        <request index="5"  response="0000111000001111" foes="1000111000001111" cont="0"/>
        <request index="6"  response="0000111000001111" foes="1000111000001111" cont="0"/>
        <request index="7"  response="0110111000001110" foes="0110111000001110" cont="1"/>
        <request index="8"  response="0000000000000000" foes="0110000000000000" cont="0"/>
        <request index="9"  response="1000000010000000" foes="1110000011111000" cont="0"/>
        <request index="10" response="1000000010000000" foes="1110000011111000" cont="0"/>
        <request index="11" response="1000000010000110" foes="1110000011100110" cont="1"/>
        <request index="12" response="0000000000000110" foes="0000000000000110" cont="0"/>
        <request index="13" response="0000111100001110" foes="0000111110001110" cont="0"/>
        <request index="14" response="0000111100001110" foes="0000111110001110" cont="0"/>
        <request index="15" response="0000111001101110" foes="0000111001101110" cont="1"/>
    </junction>
    <junction id="J_right" type="dead_end" x="111.88" y="26.23" incLanes="E1_0 E1_1" intLanes="" shape="111.88,26.23 111.93,19.83 111.88,26.23"/>
    <junction id="J_up" type="dead_end" x="28.95" y="91.75" incLanes="-E0_0 -E0_1" intLanes="" shape="28.95,91.75 35.35,91.75 28.95,91.75"/>

    <junction id=":J_mid_16_0" type="internal" x="28.07" y="31.01" incLanes=":J_mid_3_0 -E2_0 -E2_1" intLanes=":J_mid_5_0 :J_mid_5_1 :J_mid_7_0 :J_mid_8_0 :J_mid_9_0 :J_mid_9_1 :J_mid_13_0 :J_mid_13_1 :J_mid_15_0"/>
    <junction id=":J_mid_17_0" type="internal" x="34.29" y="26.51" incLanes=":J_mid_7_0 -E3_0 -E3_1" intLanes=":J_mid_1_0 :J_mid_1_1 :J_mid_3_0 :J_mid_9_0 :J_mid_9_1 :J_mid_11_0 :J_mid_12_0 :J_mid_13_0 :J_mid_13_1"/>
    <junction id=":J_mid_18_0" type="internal" x="29.88" y="20.00" incLanes=":J_mid_11_0 E0_0 E0_1" intLanes=":J_mid_0_0 :J_mid_1_0 :J_mid_1_1 :J_mid_5_0 :J_mid_5_1 :J_mid_7_0 :J_mid_13_0 :J_mid_13_1 :J_mid_15_0"/>
    <junction id=":J_mid_19_0" type="internal" x="23.31" y="24.58" incLanes=":J_mid_15_0 -E1_0 -E1_1" intLanes=":J_mid_1_0 :J_mid_1_1 :J_mid_3_0 :J_mid_4_0 :J_mid_5_0 :J_mid_5_1 :J_mid_9_0 :J_mid_9_1 :J_mid_11_0"/>

    <connection from="-E1" to="-E0" fromLane="0" toLane="0" via=":J_mid_4_0" tl="J1" linkIndex="4" dir="r" state="o"/>
    <connection from="-E1" to="E3" fromLane="0" toLane="0" via=":J_mid_5_0" tl="J1" linkIndex="5" dir="s" state="o"/>
    <connection from="-E1" to="E3" fromLane="1" toLane="1" via=":J_mid_5_1" tl="J1" linkIndex="6" dir="s" state="o"/>
    <connection from="-E1" to="E2" fromLane="1" toLane="1" via=":J_mid_7_0" tl="J1" linkIndex="7" dir="l" state="o"/>
    <connection from="-E2" to="E1" fromLane="0" toLane="0" via=":J_mid_8_0" tl="J1" linkIndex="8" dir="r" state="O"/>
    <connection from="-E2" to="-E0" fromLane="0" toLane="0" via=":J_mid_9_0" tl="J1" linkIndex="9" dir="s" state="O"/>
    <connection from="-E2" to="-E0" fromLane="1" toLane="1" via=":J_mid_9_1" tl="J1" linkIndex="10" dir="s" state="O"/>
    <connection from="-E2" to="E3" fromLane="1" toLane="1" via=":J_mid_11_0" tl="J1" linkIndex="11" dir="l" state="o"/>
    <connection from="-E3" to="E2" fromLane="0" toLane="0" via=":J_mid_12_0" tl="J1" linkIndex="12" dir="r" state="o"/>
    <connection from="-E3" to="E1" fromLane="0" toLane="0" via=":J_mid_13_0" tl="J1" linkIndex="13" dir="s" state="o"/>
    <connection from="-E3" to="E1" fromLane="1" toLane="1" via=":J_mid_13_1" tl="J1" linkIndex="14" dir="s" state="o"/>
    <connection from="-E3" to="-E0" fromLane="1" toLane="1" via=":J_mid_15_0" tl="J1" linkIndex="15" dir="l" state="o"/>
    <connection from="E0" to="E3" fromLane="0" toLane="0" via=":J_mid_0_0" tl="J1" linkIndex="0" dir="r" state="O"/>
    <connection from="E0" to="E2" fromLane="0" toLane="0" via=":J_mid_1_0" tl="J1" linkIndex="1" dir="s" state="O"/>
    <connection from="E0" to="E2" fromLane="1" toLane="1" via=":J_mid_1_1" tl="J1" linkIndex="2" dir="s" state="O"/>
    <connection from="E0" to="E1" fromLane="1" toLane="1" via=":J_mid_3_0" tl="J1" linkIndex="3" dir="l" state="o"/>

    <connection from=":J_mid_0" to="E3" fromLane="0" toLane="0" dir="r" state="M"/>
    <connection from=":J_mid_1" to="E2" fromLane="0" toLane="0" dir="s" state="M"/>
    <connection from=":J_mid_1" to="E2" fromLane="1" toLane="1" dir="s" state="M"/>
    <connection from=":J_mid_3" to="E1" fromLane="0" toLane="1" via=":J_mid_16_0" dir="l" state="m"/>
    <connection from=":J_mid_16" to="E1" fromLane="0" toLane="1" dir="l" state="M"/>
    <connection from=":J_mid_4" to="-E0" fromLane="0" toLane="0" dir="r" state="M"/>
    <connection from=":J_mid_5" to="E3" fromLane="0" toLane="0" dir="s" state="M"/>
    <connection from=":J_mid_5" to="E3" fromLane="1" toLane="1" dir="s" state="M"/>
    <connection from=":J_mid_7" to="E2" fromLane="0" toLane="1" via=":J_mid_17_0" dir="l" state="m"/>
    <connection from=":J_mid_17" to="E2" fromLane="0" toLane="1" dir="l" state="M"/>
    <connection from=":J_mid_8" to="E1" fromLane="0" toLane="0" dir="r" state="M"/>
    <connection from=":J_mid_9" to="-E0" fromLane="0" toLane="0" dir="s" state="M"/>
    <connection from=":J_mid_9" to="-E0" fromLane="1" toLane="1" dir="s" state="M"/>
    <connection from=":J_mid_11" to="E3" fromLane="0" toLane="1" via=":J_mid_18_0" dir="l" state="m"/>
    <connection from=":J_mid_18" to="E3" fromLane="0" toLane="1" dir="l" state="M"/>
    <connection from=":J_mid_12" to="E2" fromLane="0" toLane="0" dir="r" state="M"/>
    <connection from=":J_mid_13" to="E1" fromLane="0" toLane="0" dir="s" state="M"/>
    <connection from=":J_mid_13" to="E1" fromLane="1" toLane="1" dir="s" state="M"/>
    <connection from=":J_mid_15" to="-E0" fromLane="0" toLane="1" via=":J_mid_19_0" dir="l" state="m"/>
    <connection from=":J_mid_19" to="-E0" fromLane="0" toLane="1" dir="l" state="M"/>

</net>
