<?xml version="1.0" encoding="UTF-8"?>

<!-- generated on 2024-03-21 20:47:46 by Eclipse SUMO netedit Version 1.19.0
<configuration xmlns:xsi="http://www.w3.org/2001/XMLSchema-instance" xsi:noNamespaceSchemaLocation="http://sumo.dlr.de/xsd/neteditConfiguration.xsd">

    <input>
        <sumocfg-file value="D:\SUMO2\RealMaps\Test\test_light.sumocfg"/>
        <sumo-net-file value="D:\SUMO2\RealMaps\Test\test_light.net.xml"/>
    </input>

    <processing>
        <offset.disable-normalization value="true"/>
    </processing>

    <junctions>
        <no-turnarounds value="true"/>
    </junctions>

    <netedit>
        <new-network value="false"/>
    </netedit>

</configuration>
-->

<nodes version="1.16" xmlns:xsi="http://www.w3.org/2001/XMLSchema-instance" xsi:noNamespaceSchemaLocation="http://sumo.dlr.de/xsd/nodes_file.xsd">
    <location netOffset="0.00,0.00" convBoundary="-42.62,-36.37,111.88,91.75" origBoundary="10000000000.00,10000000000.00,-10000000000.00,-10000000000.00" projParameter="!"/>

    <node id="J_down" x="29.21" y="-36.37" type="dead_end"/>
    <node id="J_left" x="-42.62" y="24.34" type="dead_end"/>
    <node id="J_mid" x="28.95" y="25.60" type="traffic_light" tl="J1" tlType="actuated"/>
    <node id="J_right" x="111.88" y="26.23" type="dead_end"/>
    <node id="J_up" x="28.95" y="91.75" type="dead_end"/>
</nodes>
