<?xml version="1.0" encoding="UTF-8"?>

<!-- generated on 2024-03-21 20:47:46 by Eclipse SUMO netedit Version 1.19.0
<configuration xmlns:xsi="http://www.w3.org/2001/XMLSchema-instance" xsi:noNamespaceSchemaLocation="http://sumo.dlr.de/xsd/neteditConfiguration.xsd">

    <input>
        <sumocfg-file value="D:\SUMO2\RealMaps\Test\test_light.sumocfg"/>
        <sumo-net-file value="D:\SUMO2\RealMaps\Test\test_light.net.xml"/>
    </input>

    <processing>
        <offset.disable-normalization value="true"/>
    </processing>

    <junctions>
        <no-turnarounds value="true"/>
    </junctions>

    <netedit>
        <new-network value="false"/>
    </netedit>

</configuration>
-->

<edges version="1.16" xmlns:xsi="http://www.w3.org/2001/XMLSchema-instance" xsi:noNamespaceSchemaLocation="http://sumo.dlr.de/xsd/edges_file.xsd">
    <edge id="-E0" from="J_mid" to="J_up" priority="-1" numLanes="2" speed="13.89"/>
    <edge id="-E1" from="J_right" to="J_mid" priority="-1" numLanes="2" speed="13.89"/>
    <edge id="-E2" from="J_down" to="J_mid" priority="-1" numLanes="2" speed="13.89"/>
    <edge id="-E3" from="J_left" to="J_mid" priority="-1" numLanes="2" speed="13.89"/>
    <edge id="E0" from="J_up" to="J_mid" priority="-1" numLanes="2" speed="13.89"/>
    <edge id="E1" from="J_mid" to="J_right" priority="-1" numLanes="2" speed="13.89" spreadType="roadCenter"/>
    <edge id="E2" from="J_mid" to="J_down" priority="-1" numLanes="2" speed="13.89"/>
    <edge id="E3" from="J_mid" to="J_left" priority="-1" numLanes="2" speed="13.89"/>
</edges>
