<?xml version="1.0" encoding="UTF-8"?>

<!-- generated on 2024-06-02 22:18:05 by Eclipse SUMO netedit Version 1.19.0
<configuration xmlns:xsi="http://www.w3.org/2001/XMLSchema-instance" xsi:noNamespaceSchemaLocation="http://sumo.dlr.de/xsd/neteditConfiguration.xsd">

    <input>
        <sumo-net-file value="D:\!! AA\magister\networks\wroclaw\wroclaw.net.xml"/>
    </input>

    <output>
        <output-file value="D:\!! AA\magister\networks\wroclaw\wroclaw.net.xml"/>
        <output.street-names value="true"/>
    </output>

    <processing>
        <geometry.min-radius.fix.railways value="false"/>
        <geometry.max-grade.fix value="false"/>
        <offset.disable-normalization value="true"/>
        <lefthand value="0"/>
    </processing>

    <junctions>
        <no-turnarounds value="true"/>
        <junctions.corner-detail value="5"/>
        <junctions.limit-turn-speed value="5.50"/>
        <rectangular-lane-cut value="0"/>
    </junctions>

    <pedestrian>
        <walkingareas value="0"/>
    </pedestrian>

</configuration>
-->

<net version="1.16" junctionCornerDetail="5" limitTurnSpeed="5.50" xmlns:xsi="http://www.w3.org/2001/XMLSchema-instance" xsi:noNamespaceSchemaLocation="http://sumo.dlr.de/xsd/net_file.xsd">

    <location netOffset="-640460.89,-5662791.37" convBoundary="21.23,0.00,3298.24,2420.84" origBoundary="17.006694,51.099176,17.056212,51.120539" projParameter="+proj=utm +zone=33 +ellps=WGS84 +datum=WGS84 +units=m +no_defs"/>

    <type id="highway.living_street" priority="2" numLanes="1" speed="2.78" disallow="tram rail_urban rail rail_electric rail_fast ship" oneway="0"/>
    <type id="highway.residential" priority="3" numLanes="1" speed="13.89" disallow="tram rail_urban rail rail_electric rail_fast ship" oneway="0"/>
    <type id="highway.secondary" priority="11" numLanes="1" speed="27.78" disallow="tram rail_urban rail rail_electric rail_fast ship" oneway="0"/>
    <type id="highway.secondary_link" priority="6" numLanes="1" speed="22.22" disallow="tram rail_urban rail rail_electric rail_fast ship" oneway="0"/>
    <type id="highway.service" priority="1" numLanes="1" speed="5.56" allow="pedestrian delivery bicycle" oneway="0"/>
    <type id="highway.tertiary" priority="10" numLanes="1" speed="22.22" disallow="tram rail_urban rail rail_electric rail_fast ship" oneway="0"/>
    <type id="highway.tertiary_link" priority="5" numLanes="1" speed="22.22" disallow="tram rail_urban rail rail_electric rail_fast ship" oneway="0"/>
    <type id="highway.unclassified" priority="4" numLanes="1" speed="13.89" disallow="tram rail_urban rail rail_electric rail_fast ship" oneway="0"/>

    <edge id=":10101643483_0" function="internal">
        <lane id=":10101643483_0_0" index="0" disallow="tram rail_urban rail rail_electric rail_fast ship" speed="13.89" length="0.30" shape="2353.38,958.76 2353.68,958.71"/>
        <lane id=":10101643483_0_1" index="1" disallow="tram rail_urban rail rail_electric rail_fast ship" speed="13.89" length="0.30" shape="2353.82,961.93 2354.11,961.89"/>
    </edge>
    <edge id=":10132688656_0" function="internal">
        <lane id=":10132688656_0_0" index="0" disallow="tram rail_urban rail rail_electric rail_fast ship" speed="13.89" length="8.29" shape="911.66,1974.13 919.82,1973.16"/>
        <lane id=":10132688656_0_1" index="1" disallow="tram rail_urban rail rail_electric rail_fast ship" speed="13.89" length="8.29" shape="912.01,1977.31 920.31,1976.32"/>
    </edge>
    <edge id=":10297470672_0" function="internal">
        <lane id=":10297470672_0_0" index="0" disallow="tram rail_urban rail rail_electric rail_fast ship" speed="8.33" length="0.10" shape="2467.00,1210.70 2467.00,1210.70"/>
    </edge>
    <edge id=":10601960463_0" function="internal">
        <lane id=":10601960463_0_0" index="0" disallow="tram rail_urban rail rail_electric rail_fast ship" speed="13.89" length="0.30" shape="2089.66,1724.10 2089.92,1723.94"/>
    </edge>
    <edge id=":1084594356_0" function="internal">
        <lane id=":1084594356_0_0" index="0" disallow="pedestrian tram rail_urban rail rail_electric rail_fast ship" speed="13.89" length="0.29" shape="2076.93,2134.12 2076.63,2134.04"/>
        <lane id=":1084594356_0_1" index="1" disallow="pedestrian tram rail_urban rail rail_electric rail_fast ship" speed="13.89" length="0.29" shape="2077.77,2131.04 2077.52,2130.96"/>
    </edge>
    <edge id=":1084594565_0" function="internal">
        <lane id=":1084594565_0_0" index="0" disallow="tram rail_urban rail rail_electric rail_fast ship" speed="3.65" length="4.67" shape="2165.90,2183.30 2164.60,2183.92 2163.70,2183.86 2163.22,2183.10 2163.14,2181.66"/>
    </edge>
    <edge id=":10904675826_0" function="internal">
        <lane id=":10904675826_0_0" index="0" disallow="tram rail_urban rail rail_electric rail_fast ship" speed="12.50" length="0.27" shape="2271.35,2153.68 2271.03,2153.82"/>
        <lane id=":10904675826_0_1" index="1" disallow="tram rail_urban rail rail_electric rail_fast ship" speed="12.50" length="0.27" shape="2269.97,2150.79 2269.80,2150.87"/>
    </edge>
    <edge id=":1095088169_0" function="internal">
        <lane id=":1095088169_0_0" index="0" disallow="tram rail_urban rail rail_electric rail_fast ship" speed="10.03" length="5.43" shape="2451.40,2065.96 2451.31,2064.39 2450.99,2063.33 2450.41,2062.36 2449.51,2061.02"/>
    </edge>
    <edge id=":1095088169_1" function="internal">
        <lane id=":1095088169_1_0" index="0" disallow="tram rail_urban rail rail_electric rail_fast ship" speed="13.89" length="9.52" shape="2454.60,2065.98 2454.46,2063.14 2454.28,2061.15 2454.46,2059.24 2455.40,2056.64"/>
    </edge>
    <edge id=":1095089461_0" function="internal">
        <lane id=":1095089461_0_0" index="0" disallow="tram rail_urban rail rail_electric rail_fast ship" speed="2.78" length="2.74" shape="2964.75,1764.06 2965.61,1766.67"/>
    </edge>
    <edge id=":1095089461_1" function="internal">
        <lane id=":1095089461_1_0" index="0" disallow="tram rail_urban rail rail_electric rail_fast ship" speed="2.78" length="4.67" shape="2964.75,1764.06 2965.17,1765.45 2964.97,1766.32 2964.15,1766.68 2962.71,1766.54"/>
    </edge>
    <edge id=":1096886445_0" function="internal">
        <lane id=":1096886445_0_0" index="0" disallow="tram rail_urban rail rail_electric rail_fast ship" speed="13.89" length="7.00" shape="3111.79,1908.24 3112.44,1910.21 3113.25,1911.45 3114.04,1912.69 3114.65,1914.67"/>
        <lane id=":1096886445_0_1" index="1" disallow="tram rail_urban rail rail_electric rail_fast ship" speed="13.89" length="7.00" shape="3108.65,1908.87 3109.30,1910.82 3110.11,1912.04 3110.90,1913.27 3111.50,1915.23"/>
        <lane id=":1096886445_0_2" index="2" disallow="tram rail_urban rail rail_electric rail_fast ship" speed="13.89" length="7.00" shape="3105.52,1909.50 3106.16,1911.43 3106.96,1912.64 3107.75,1913.85 3108.35,1915.79"/>
        <lane id=":1096886445_0_3" index="3" disallow="tram rail_urban rail rail_electric rail_fast ship" speed="13.89" length="7.00" shape="3105.52,1909.50 3105.67,1911.51 3105.39,1912.92 3105.09,1914.33 3105.20,1916.35"/>
    </edge>
    <edge id=":11006136918_0" function="internal">
        <lane id=":11006136918_0_0" index="0" disallow="tram rail_urban rail rail_electric rail_fast ship" speed="8.33" length="0.10" shape="1380.31,622.18 1380.31,622.18"/>
    </edge>
    <edge id=":11006136918_1" function="internal">
        <lane id=":11006136918_1_0" index="0" disallow="tram rail_urban rail rail_electric rail_fast ship" speed="8.33" length="0.10" shape="1379.63,619.06 1379.63,619.06"/>
    </edge>
    <edge id=":11009136412_0" function="internal">
        <lane id=":11009136412_0_0" index="0" disallow="tram rail_urban rail rail_electric rail_fast ship" speed="13.89" length="0.30" shape="1176.17,1315.03 1176.45,1314.93"/>
        <lane id=":11009136412_0_1" index="1" disallow="tram rail_urban rail rail_electric rail_fast ship" speed="13.89" length="0.30" shape="1177.24,1318.05 1177.52,1317.95"/>
    </edge>
    <edge id=":11067698655_0" function="internal">
        <lane id=":11067698655_0_0" index="0" disallow="tram rail_urban rail rail_electric rail_fast ship" speed="13.89" length="0.30" shape="613.17,593.48 613.00,593.73"/>
    </edge>
    <edge id=":11067698655_1" function="internal">
        <lane id=":11067698655_1_0" index="0" disallow="tram rail_urban rail rail_electric rail_fast ship" speed="13.89" length="0.30" shape="610.35,591.94 610.52,591.69"/>
    </edge>
    <edge id=":11068933548_0" function="internal">
        <lane id=":11068933548_0_0" index="0" allow="pedestrian delivery bicycle" speed="3.65" length="4.67" shape="908.04,1376.01 909.44,1376.35 910.09,1376.96 909.99,1377.85 909.14,1379.01"/>
    </edge>
    <edge id=":11100226935_0" function="internal">
        <lane id=":11100226935_0_0" index="0" disallow="tram rail_urban rail rail_electric rail_fast ship" speed="3.65" length="4.67" shape="1227.67,2068.62 1226.67,2069.65 1225.81,2069.90 1225.10,2069.37 1224.53,2068.04"/>
    </edge>
    <edge id=":11152646076_0" function="internal">
        <lane id=":11152646076_0_0" index="0" disallow="tram rail_urban rail rail_electric rail_fast ship" speed="3.65" length="4.67" shape="863.91,1.12 863.64,-0.29 863.93,-1.14 864.78,-1.42 866.19,-1.12"/>
    </edge>
    <edge id=":11189022822_0" function="internal">
        <lane id=":11189022822_0_0" index="0" disallow="tram rail_urban rail rail_electric rail_fast ship" speed="2.78" length="0.30" shape="2074.72,1116.68 2074.44,1116.76"/>
    </edge>
    <edge id=":11207358760_0" function="internal">
        <lane id=":11207358760_0_0" index="0" disallow="tram rail_urban rail rail_electric rail_fast ship" speed="13.89" length="0.30" shape="846.75,1722.14 846.50,1722.30"/>
    </edge>
    <edge id=":11207358760_1" function="internal">
        <lane id=":11207358760_1_0" index="0" disallow="tram rail_urban rail rail_electric rail_fast ship" speed="13.89" length="0.30" shape="844.79,1719.60 845.04,1719.44"/>
    </edge>
    <edge id=":11207358762_0" function="internal">
        <lane id=":11207358762_0_0" index="0" disallow="tram rail_urban rail rail_electric rail_fast ship" speed="13.89" length="0.30" shape="870.80,1706.89 870.55,1707.05"/>
    </edge>
    <edge id=":11207358762_1" function="internal">
        <lane id=":11207358762_1_0" index="0" disallow="tram rail_urban rail rail_electric rail_fast ship" speed="13.89" length="0.30" shape="868.84,1704.35 869.09,1704.19"/>
    </edge>
    <edge id=":1142563023_0" function="internal">
        <lane id=":1142563023_0_0" index="0" disallow="tram rail_urban rail rail_electric rail_fast ship" speed="5.56" length="0.10" shape="2394.72,1859.94 2394.69,1859.86"/>
    </edge>
    <edge id=":1142563023_1" function="internal">
        <lane id=":1142563023_1_0" index="0" disallow="tram rail_urban rail rail_electric rail_fast ship" speed="5.56" length="0.10" shape="2397.65,1858.66 2397.62,1858.58"/>
    </edge>
    <edge id=":11800444965_0" function="internal">
        <lane id=":11800444965_0_0" index="0" disallow="tram rail_urban rail rail_electric rail_fast ship" speed="11.11" length="0.30" shape="987.34,1967.48 987.64,1967.45"/>
        <lane id=":11800444965_0_1" index="1" disallow="tram rail_urban rail rail_electric rail_fast ship" speed="11.11" length="0.30" shape="987.62,1970.67 987.92,1970.64"/>
    </edge>
    <edge id=":11811708916_0" function="internal">
        <lane id=":11811708916_0_0" index="0" disallow="pedestrian tram rail_urban rail rail_electric rail_fast ship" speed="13.89" length="0.28" shape="3037.20,1680.99 3037.15,1680.75"/>
        <lane id=":11811708916_0_1" index="1" disallow="pedestrian tram rail_urban rail rail_electric rail_fast ship" speed="13.89" length="0.28" shape="3040.34,1680.36 3040.27,1680.06"/>
    </edge>
    <edge id=":1184506367_0" function="internal">
        <lane id=":1184506367_0_0" index="0" disallow="tram rail_urban rail rail_electric rail_fast ship" speed="8.33" length="0.30" shape="2672.81,1330.89 2672.52,1330.88"/>
    </edge>
    <edge id=":1184506367_1" function="internal">
        <lane id=":1184506367_1_0" index="0" disallow="tram rail_urban rail rail_electric rail_fast ship" speed="8.33" length="0.30" shape="2672.62,1327.69 2672.93,1327.70"/>
    </edge>
    <edge id=":1184506392_0" function="internal">
        <lane id=":1184506392_0_0" index="0" disallow="pedestrian tram rail_urban rail rail_electric rail_fast ship" speed="13.89" length="0.29" shape="2053.77,2108.22 2054.02,2108.30"/>
        <lane id=":1184506392_0_1" index="1" disallow="pedestrian tram rail_urban rail rail_electric rail_fast ship" speed="13.89" length="0.29" shape="2052.87,2111.30 2053.17,2111.38"/>
    </edge>
    <edge id=":1184506453_0" function="internal">
        <lane id=":1184506453_0_0" index="0" disallow="tram rail_urban rail rail_electric rail_fast ship" speed="8.33" length="0.30" shape="2622.31,1329.19 2622.00,1329.18"/>
    </edge>
    <edge id=":1184506453_1" function="internal">
        <lane id=":1184506453_1_0" index="0" disallow="tram rail_urban rail rail_electric rail_fast ship" speed="8.33" length="0.30" shape="2622.12,1325.99 2622.41,1326.00"/>
    </edge>
    <edge id=":11847001497_0" function="internal">
        <lane id=":11847001497_0_0" index="0" disallow="tram rail_urban rail rail_electric rail_fast ship" speed="3.65" length="4.67" shape="1348.13,1532.24 1346.78,1531.72 1346.22,1531.02 1346.44,1530.15 1347.44,1529.12"/>
    </edge>
    <edge id=":11847001497_1" function="internal">
        <lane id=":11847001497_1_0" index="0" disallow="tram rail_urban rail rail_electric rail_fast ship" speed="8.33" length="3.52" shape="1344.85,1531.32 1345.73,1530.87 1346.15,1530.22 1346.57,1529.56 1347.44,1529.12"/>
    </edge>
    <edge id=":11899296672_0" function="internal">
        <lane id=":11899296672_0_0" index="0" disallow="tram rail_urban rail rail_electric rail_fast ship" speed="13.89" length="0.28" shape="3081.78,1854.21 3081.74,1853.96"/>
        <lane id=":11899296672_0_1" index="1" disallow="tram rail_urban rail rail_electric rail_fast ship" speed="13.89" length="0.28" shape="3084.94,1853.69 3084.89,1853.38"/>
    </edge>
    <edge id=":1190692807_0" function="internal">
        <lane id=":1190692807_0_0" index="0" disallow="tram rail_urban rail rail_electric rail_fast ship" speed="13.89" length="7.33" shape="1482.03,1479.45 1483.38,1481.10 1484.62,1481.94 1485.94,1482.73 1487.52,1484.21"/>
    </edge>
    <edge id=":1190764013_0" function="internal">
        <lane id=":1190764013_0_0" index="0" disallow="pedestrian tram rail_urban rail rail_electric rail_fast ship" speed="18.05" length="2.93" shape="2886.83,985.20 2887.87,982.47"/>
    </edge>
    <edge id=":1190764013_1" function="internal">
        <lane id=":1190764013_1_0" index="0" disallow="pedestrian tram rail_urban rail rail_electric rail_fast ship" speed="13.89" length="3.01" shape="2889.82,986.36 2890.88,983.57"/>
        <lane id=":1190764013_1_1" index="1" disallow="pedestrian tram rail_urban rail rail_electric rail_fast ship" speed="13.89" length="3.01" shape="2892.81,987.51 2893.88,984.67"/>
    </edge>
    <edge id=":1190767523_0" function="internal">
        <lane id=":1190767523_0_0" index="0" disallow="tram rail_urban rail rail_electric rail_fast ship" speed="5.56" length="0.42" shape="2556.16,1307.04 2556.16,1306.91 2556.16,1306.83 2556.17,1306.74 2556.18,1306.62"/>
    </edge>
    <edge id=":1190767523_1" function="internal">
        <lane id=":1190767523_1_0" index="0" disallow="tram rail_urban rail rail_electric rail_fast ship" speed="5.56" length="0.14" shape="2559.37,1306.88 2559.36,1306.92 2559.36,1306.95 2559.36,1306.98 2559.36,1307.02"/>
    </edge>
    <edge id=":1190778078_0" function="internal">
        <lane id=":1190778078_0_0" index="0" disallow="tram rail_urban rail rail_electric rail_fast ship" speed="13.89" length="8.03" shape="2233.07,1099.32 2232.87,1096.92 2232.38,1095.30 2231.93,1093.68 2231.87,1091.28"/>
        <lane id=":1190778078_0_1" index="1" disallow="tram rail_urban rail rail_electric rail_fast ship" speed="13.89" length="8.03" shape="2236.26,1099.39 2236.07,1097.04 2235.58,1095.46 2235.13,1093.87 2235.06,1091.53"/>
        <lane id=":1190778078_0_2" index="2" disallow="tram rail_urban rail rail_electric rail_fast ship" speed="13.89" length="8.03" shape="2236.26,1099.39 2236.57,1097.10 2237.18,1095.59 2237.82,1094.08 2238.25,1091.79"/>
    </edge>
    <edge id=":1191040929_0" function="internal">
        <lane id=":1191040929_0_0" index="0" disallow="tram rail_urban rail rail_electric rail_fast ship" speed="13.89" length="18.80" shape="2490.88,1014.14 2487.15,1010.14 2484.61,1007.35 2481.83,1004.86 2477.36,1001.75"/>
        <lane id=":1191040929_0_1" index="1" disallow="tram rail_urban rail rail_electric rail_fast ship" speed="13.89" length="18.80" shape="2493.17,1011.90 2489.28,1007.74 2486.62,1004.85 2483.71,1002.26 2479.05,999.04"/>
    </edge>
    <edge id=":1191040929_2" function="internal">
        <lane id=":1191040929_2_0" index="0" disallow="tram rail_urban rail rail_electric rail_fast ship" speed="13.89" length="17.80" shape="2493.17,1011.90 2489.72,1007.99 2487.89,1004.89 2486.63,1001.43 2484.90,996.42"/>
        <lane id=":1191040929_2_1" index="1" disallow="tram rail_urban rail rail_electric rail_fast ship" speed="13.89" length="16.47" shape="2495.46,1009.67 2492.28,1006.04 2490.62,1003.16 2489.48,999.93 2487.90,995.30"/>
        <lane id=":1191040929_2_2" index="2" disallow="tram rail_urban rail rail_electric rail_fast ship" speed="13.89" length="15.14" shape="2497.74,1007.43 2494.84,1004.09 2493.35,1001.42 2492.34,998.44 2490.89,994.17"/>
    </edge>
    <edge id=":1191096466_0" function="internal">
        <lane id=":1191096466_0_0" index="0" disallow="tram rail_urban rail rail_electric rail_fast ship" speed="13.89" length="0.24" shape="1993.72,909.73 1994.02,909.75"/>
        <lane id=":1191096466_0_1" index="1" disallow="tram rail_urban rail rail_electric rail_fast ship" speed="13.89" length="0.24" shape="1993.58,912.92 1993.76,912.93"/>
    </edge>
    <edge id=":1191096490_0" function="internal">
        <lane id=":1191096490_0_0" index="0" disallow="tram rail_urban rail rail_electric rail_fast ship" speed="13.89" length="8.13" shape="1748.64,942.11 1750.69,940.83 1751.91,939.64 1753.14,938.48 1755.23,937.28"/>
        <lane id=":1191096490_0_1" index="1" disallow="tram rail_urban rail rail_electric rail_fast ship" speed="13.89" length="8.13" shape="1750.04,944.99 1752.06,943.72 1753.26,942.55 1754.47,941.39 1756.52,940.21"/>
        <lane id=":1191096490_0_2" index="2" disallow="tram rail_urban rail rail_electric rail_fast ship" speed="13.89" length="8.13" shape="1750.04,944.99 1752.26,944.18 1753.91,944.01 1755.57,943.86 1757.82,943.14"/>
    </edge>
    <edge id=":1191096492_0" function="internal">
        <lane id=":1191096492_0_0" index="0" disallow="tram rail_urban rail rail_electric rail_fast ship" speed="13.89" length="0.30" shape="1646.34,1566.09 1646.05,1566.00"/>
        <lane id=":1191096492_0_1" index="1" disallow="tram rail_urban rail rail_electric rail_fast ship" speed="13.89" length="0.30" shape="1647.36,1563.06 1647.08,1562.97"/>
    </edge>
    <edge id=":1292291928_0" function="internal">
        <lane id=":1292291928_0_0" index="0" disallow="tram rail_urban rail rail_electric rail_fast ship" speed="6.69" length="9.21" shape="1604.35,1021.28 1603.12,1019.01 1601.51,1017.63 1599.50,1017.14 1597.09,1017.52"/>
    </edge>
    <edge id=":1292291928_1" function="internal">
        <lane id=":1292291928_1_0" index="0" disallow="tram rail_urban rail rail_electric rail_fast ship" speed="3.65" length="4.67" shape="1604.35,1021.28 1604.69,1019.88 1605.31,1019.23 1606.20,1019.33 1607.36,1020.19"/>
    </edge>
    <edge id=":1292291928_2" function="internal">
        <lane id=":1292291928_2_0" index="0" disallow="tram rail_urban rail rail_electric rail_fast ship" speed="6.40" length="9.06" shape="1610.82,1013.15 1608.55,1014.24 1607.22,1015.78 1606.82,1017.76 1607.36,1020.19"/>
    </edge>
    <edge id=":1292291928_3" function="internal">
        <lane id=":1292291928_3_0" index="0" disallow="tram rail_urban rail rail_electric rail_fast ship" speed="13.89" length="14.41" shape="1610.82,1013.15 1597.09,1017.52"/>
        <lane id=":1292291928_3_1" index="1" disallow="tram rail_urban rail rail_electric rail_fast ship" speed="13.89" length="14.41" shape="1609.85,1010.10 1596.12,1014.48"/>
        <lane id=":1292291928_3_2" index="2" disallow="tram rail_urban rail rail_electric rail_fast ship" speed="13.89" length="14.41" shape="1608.88,1007.05 1595.14,1011.43"/>
    </edge>
    <edge id=":1297337830_0" function="internal">
        <lane id=":1297337830_0_0" index="0" disallow="tram rail_urban rail rail_electric rail_fast ship" speed="13.89" length="8.16" shape="1396.40,1182.09 1396.62,1179.67 1396.41,1177.97 1396.22,1176.27 1396.52,1173.86"/>
        <lane id=":1297337830_0_1" index="1" disallow="tram rail_urban rail rail_electric rail_fast ship" speed="13.89" length="8.16" shape="1396.40,1182.09 1397.11,1179.79 1397.97,1178.33 1398.85,1176.87 1399.63,1174.58"/>
        <lane id=":1297337830_0_2" index="2" disallow="tram rail_urban rail rail_electric rail_fast ship" speed="13.89" length="8.16" shape="1399.54,1182.71 1400.24,1180.43 1401.10,1178.99 1401.98,1177.56 1402.75,1175.30"/>
        <lane id=":1297337830_0_3" index="3" disallow="tram rail_urban rail rail_electric rail_fast ship" speed="13.89" length="8.16" shape="1402.68,1183.32 1403.37,1181.08 1404.23,1179.66 1405.10,1178.25 1405.87,1176.02"/>
    </edge>
    <edge id=":1299373989_0" function="internal">
        <lane id=":1299373989_0_0" index="0" disallow="tram rail_urban rail rail_electric rail_fast ship" speed="13.89" length="0.62" shape="1066.19,991.78 1066.19,991.88 1066.20,991.94 1066.21,992.00 1066.23,992.09"/>
        <lane id=":1299373989_0_1" index="1" disallow="tram rail_urban rail rail_electric rail_fast ship" speed="13.89" length="0.62" shape="1062.99,991.87 1063.00,992.15 1063.02,992.34 1063.05,992.53 1063.11,992.80"/>
    </edge>
    <edge id=":1299677047_0" function="internal">
        <lane id=":1299677047_0_0" index="0" disallow="tram rail_urban rail rail_electric rail_fast ship" speed="13.89" length="8.13" shape="2255.17,915.41 2255.75,917.76 2256.51,919.28 2257.23,920.81 2257.73,923.17"/>
        <lane id=":1299677047_0_1" index="1" disallow="tram rail_urban rail rail_electric rail_fast ship" speed="13.89" length="8.13" shape="2252.00,915.86 2252.58,918.17 2253.33,919.67 2254.05,921.18 2254.55,923.50"/>
        <lane id=":1299677047_0_2" index="2" disallow="tram rail_urban rail rail_electric rail_fast ship" speed="13.89" length="8.13" shape="2252.00,915.86 2252.08,918.22 2251.74,919.84 2251.37,921.47 2251.37,923.83"/>
    </edge>
    <edge id=":1300768538_0" function="internal">
        <lane id=":1300768538_0_0" index="0" disallow="tram rail_urban rail rail_electric rail_fast ship" speed="18.05" length="16.20" shape="2836.12,1006.06 2840.97,1007.97 2844.83,1009.05 2848.24,1009.58 2851.76,1009.85"/>
    </edge>
    <edge id=":1300768538_1" function="internal">
        <lane id=":1300768538_1_0" index="0" disallow="pedestrian tram rail_urban rail rail_electric rail_fast ship" speed="13.89" length="32.41" shape="2836.12,1006.06 2865.04,1020.72"/>
        <lane id=":1300768538_1_1" index="1" disallow="pedestrian tram rail_urban rail rail_electric rail_fast ship" speed="13.89" length="32.41" shape="2834.83,1008.99 2863.73,1023.64"/>
    </edge>
    <edge id=":1300768538_3" function="internal">
        <lane id=":1300768538_3_0" index="0" disallow="pedestrian tram rail_urban rail rail_electric rail_fast ship" speed="13.89" length="32.10" shape="2833.55,1011.92 2842.61,1016.01 2849.76,1019.58 2855.84,1023.15 2861.70,1027.20"/>
        <lane id=":1300768538_3_1" index="1" disallow="pedestrian tram rail_urban rail rail_electric rail_fast ship" speed="13.89" length="31.93" shape="2833.55,1011.92 2842.32,1016.42 2848.84,1020.89 2854.28,1025.35 2859.85,1029.81"/>
    </edge>
    <edge id=":1300768539_0" function="internal">
        <lane id=":1300768539_0_0" index="0" disallow="tram rail_urban rail rail_electric rail_fast ship" speed="13.89" length="0.29" shape="2677.80,942.32 2678.11,942.44"/>
        <lane id=":1300768539_0_1" index="1" disallow="tram rail_urban rail rail_electric rail_fast ship" speed="13.89" length="0.29" shape="2676.64,945.30 2676.90,945.40"/>
        <lane id=":1300768539_0_2" index="2" disallow="tram rail_urban rail rail_electric rail_fast ship" speed="13.89" length="0.29" shape="2675.47,948.28 2675.69,948.37"/>
    </edge>
    <edge id=":1300889827_0" function="internal">
        <lane id=":1300889827_0_0" index="0" disallow="tram rail_urban rail rail_electric rail_fast ship" speed="13.89" length="8.18" shape="2958.22,915.60 2957.79,917.94 2957.88,919.61 2957.98,921.28 2957.60,923.64"/>
        <lane id=":1300889827_0_1" index="1" disallow="tram rail_urban rail rail_electric rail_fast ship" speed="13.89" length="8.18" shape="2958.22,915.60 2957.31,917.81 2956.34,919.19 2955.38,920.57 2954.51,922.79"/>
        <lane id=":1300889827_0_2" index="2" disallow="tram rail_urban rail rail_electric rail_fast ship" speed="13.89" length="8.18" shape="2955.15,914.69 2954.23,916.92 2953.26,918.31 2952.30,919.70 2951.42,921.95"/>
        <lane id=":1300889827_0_3" index="3" disallow="tram rail_urban rail rail_electric rail_fast ship" speed="13.89" length="8.18" shape="2952.08,913.79 2951.16,916.04 2950.18,917.44 2949.22,918.84 2948.34,921.10"/>
    </edge>
    <edge id=":1302027827_0" function="internal">
        <lane id=":1302027827_0_0" index="0" disallow="tram rail_urban rail rail_electric rail_fast ship" speed="13.89" length="8.39" shape="3037.66,1578.11 3038.92,1580.30 3040.45,1581.43 3041.97,1582.57 3043.18,1584.77"/>
        <lane id=":1302027827_0_1" index="1" disallow="tram rail_urban rail rail_electric rail_fast ship" speed="13.89" length="8.39" shape="3037.66,1578.11 3040.13,1585.73"/>
        <lane id=":1302027827_0_2" index="2" disallow="tram rail_urban rail rail_electric rail_fast ship" speed="13.89" length="8.39" shape="3034.63,1579.12 3037.08,1586.69"/>
        <lane id=":1302027827_0_3" index="3" disallow="tram rail_urban rail rail_electric rail_fast ship" speed="13.89" length="8.39" shape="3034.63,1579.12 3034.92,1581.59 3034.35,1583.37 3033.77,1585.16 3034.02,1587.64"/>
    </edge>
    <edge id=":1305745171_0" function="internal">
        <lane id=":1305745171_0_0" index="0" disallow="tram rail_urban rail rail_electric rail_fast ship" speed="3.66" length="4.70" shape="1749.14,2152.06 1748.20,2150.96 1748.03,2150.07 1748.64,2149.41 1750.02,2148.97"/>
    </edge>
    <edge id=":1305745171_1" function="internal">
        <lane id=":1305745171_1_0" index="0" disallow="tram rail_urban rail rail_electric rail_fast ship" speed="6.76" length="8.55" shape="1746.12,2142.26 1745.97,2144.43 1746.57,2146.27 1747.92,2147.78 1750.02,2148.97"/>
    </edge>
    <edge id=":1309413394_0" function="internal">
        <lane id=":1309413394_0_0" index="0" disallow="tram rail_urban rail rail_electric rail_fast ship" speed="5.56" length="0.27" shape="1601.09,1326.91 1601.16,1327.17"/>
    </edge>
    <edge id=":1368993262_0" function="internal">
        <lane id=":1368993262_0_0" index="0" disallow="tram rail_urban rail rail_electric rail_fast ship" speed="13.89" length="6.63" shape="923.22,1997.52 921.13,1997.65 919.69,1997.59 918.26,1997.34 916.20,1996.90"/>
        <lane id=":1368993262_0_1" index="1" disallow="tram rail_urban rail rail_electric rail_fast ship" speed="13.89" length="6.63" shape="922.95,1994.33 921.13,1994.44 919.88,1994.38 918.64,1994.15 916.85,1993.77"/>
    </edge>
    <edge id=":1368993262_2" function="internal">
        <lane id=":1368993262_2_0" index="0" disallow="tram rail_urban rail rail_electric rail_fast ship" speed="6.95" length="4.92" shape="922.68,1991.14 921.42,1991.12 920.26,1990.84 919.19,1990.29 918.22,1989.48"/>
    </edge>
    <edge id=":1411631416_0" function="internal">
        <lane id=":1411631416_0_0" index="0" disallow="tram rail_urban rail rail_electric rail_fast ship" speed="8.33" length="8.41" shape="1640.07,1480.76 1642.39,1488.84"/>
    </edge>
    <edge id=":1411631416_1" function="internal">
        <lane id=":1411631416_1_0" index="0" disallow="tram rail_urban rail rail_electric rail_fast ship" speed="5.87" length="6.96" shape="1636.24,1487.43 1638.63,1487.02 1640.46,1487.12 1641.71,1487.72 1642.39,1488.84"/>
    </edge>
    <edge id=":1417526670_0" function="internal">
        <lane id=":1417526670_0_0" index="0" disallow="pedestrian tram rail_urban rail rail_electric rail_fast ship" speed="13.89" length="6.59" shape="2462.08,2214.09 2462.16,2216.02 2462.54,2217.34 2462.90,2218.65 2462.90,2220.58"/>
    </edge>
    <edge id=":1417526670_1" function="internal">
        <lane id=":1417526670_1_0" index="0" disallow="pedestrian tram rail_urban rail rail_electric rail_fast ship" speed="8.76" length="5.72" shape="2462.08,2214.09 2461.83,2215.72 2461.33,2216.76 2460.51,2217.66 2459.29,2218.85"/>
    </edge>
    <edge id=":1421769658_0" function="internal">
        <lane id=":1421769658_0_0" index="0" disallow="tram rail_urban rail rail_electric rail_fast ship" speed="13.89" length="0.10" shape="810.19,1575.33 810.19,1575.33"/>
    </edge>
    <edge id=":1474103168_0" function="internal">
        <lane id=":1474103168_0_0" index="0" disallow="tram rail_urban rail rail_electric rail_fast ship" speed="8.33" length="0.10" shape="1251.13,1462.78 1251.13,1462.78"/>
    </edge>
    <edge id=":151024808_0" function="internal">
        <lane id=":151024808_0_0" index="0" disallow="tram rail_urban rail rail_electric rail_fast ship" speed="12.06" length="6.80" shape="1062.74,598.14 1061.82,596.33 1061.17,595.06 1060.29,594.01 1058.68,592.88"/>
    </edge>