<?xml version="1.0" encoding="UTF-8"?>

<!-- generated on 2024-05-20 08:20:06 by Eclipse SUMO netedit Version 1.19.0
-->

<additional xmlns:xsi="http://www.w3.org/2001/XMLSchema-instance" xsi:noNamespaceSchemaLocation="http://sumo.dlr.de/xsd/additional_file.xsd">
    <!-- TAZs -->
    <taz id="taz_0" shape="603.46,2251.09 469.29,1913.50 592.64,1816.12 925.89,1738.22 1142.30,1608.38 1202.89,1911.34 1174.76,2121.25 599.13,2248.92 603.46,2251.09" fill="1" color="0,221,255">
        <tazSource id="-24442135#0" weight="1.00"/>
        <tazSink id="-24442135#0" weight="1.00"/>
        <tazSource id="-24442135#1" weight="1.00"/>
        <tazSink id="-24442135#1" weight="1.00"/>
        <tazSource id="-24442135#2" weight="1.00"/>
        <tazSink id="-24442135#2" weight="1.00"/>
        <tazSource id="-509125454#1" weight="1.00"/>
        <tazSink id="-509125454#1" weight="1.00"/>
        <tazSource id="-510290034" weight="1.00"/>
        <tazSink id="-510290034" weight="1.00"/>
        <tazSource id="1026216434" weight="1.00"/>
        <tazSink id="1026216434" weight="1.00"/>
        <tazSource id="1039347177" weight="1.00"/>
        <tazSink id="1039347177" weight="1.00"/>
        <tazSource id="1052752375" weight="1.00"/>
        <tazSink id="1052752375" weight="1.00"/>
        <tazSource id="1083262912" weight="1.00"/>
        <tazSink id="1083262912" weight="1.00"/>
        <tazSource id="1083262913" weight="1.00"/>
        <tazSink id="1083262913" weight="1.00"/>
        <tazSource id="1085134193#0" weight="1.00"/>
        <tazSink id="1085134193#0" weight="1.00"/>
        <tazSource id="1085134193#1" weight="1.00"/>
        <tazSink id="1085134193#1" weight="1.00"/>
        <tazSource id="1107387808" weight="1.00"/>
        <tazSink id="1107387808" weight="1.00"/>
        <tazSource id="1116501616" weight="1.00"/>
        <tazSink id="1116501616" weight="1.00"/>
        <tazSource id="1116502235#0" weight="1.00"/>
        <tazSink id="1116502235#0" weight="1.00"/>
        <tazSource id="1116502235#1" weight="1.00"/>
        <tazSink id="1116502235#1" weight="1.00"/>
        <tazSource id="1270713702" weight="1.00"/>
        <tazSink id="1270713702" weight="1.00"/>
        <tazSource id="1270713704" weight="1.00"/>
        <tazSink id="1270713704" weight="1.00"/>
        <tazSource id="17919652#0" weight="1.00"/>
        <tazSink id="17919652#0" weight="1.00"/>
        <tazSource id="17922921#1" weight="1.00"/>
        <tazSink id="17922921#1" weight="1.00"/>
        <tazSource id="17922921#2" weight="1.00"/>
        <tazSink id="17922921#2" weight="1.00"/>
        <tazSource id="17922922" weight="1.00"/>
        <tazSink id="17922922" weight="1.00"/>
        <tazSource id="17922924" weight="1.00"/>
        <tazSink id="17922924" weight="1.00"/>
        <tazSource id="23022461#1" weight="1.00"/>
        <tazSink id="23022461#1" weight="1.00"/>
        <tazSource id="24442135#1" weight="1.00"/>
        <tazSink id="24442135#1" weight="1.00"/>
        <tazSource id="24442135#2" weight="1.00"/>
        <tazSink id="24442135#2" weight="1.00"/>
        <tazSource id="24442135#3" weight="1.00"/>
        <tazSink id="24442135#3" weight="1.00"/>
        <tazSource id="302111242" weight="1.00"/>
        <tazSink id="302111242" weight="1.00"/>
        <tazSource id="358489204#0" weight="1.00"/>
        <tazSink id="358489204#0" weight="1.00"/>
        <tazSource id="358489204#2" weight="1.00"/>
        <tazSink id="358489204#2" weight="1.00"/>
        <tazSource id="510290034" weight="1.00"/>
        <tazSink id="510290034" weight="1.00"/>
        <tazSource id="55468140" weight="1.00"/>
        <tazSink id="55468140" weight="1.00"/>
        <tazSource id="866970756#0" weight="1.00"/>
        <tazSink id="866970756#0" weight="1.00"/>
        <tazSource id="935137766#0" weight="1.00"/>
        <tazSink id="935137766#0" weight="1.00"/>
        <tazSource id="982723012" weight="1.00"/>
        <tazSink id="982723012" weight="1.00"/>
        <tazSource id="987184385#1" weight="1.00"/>
        <tazSink id="987184385#1" weight="1.00"/>
        <tazSource id="987184386" weight="1.00"/>
        <tazSink id="987184386" weight="1.00"/>
        <tazSource id="993644190" weight="1.00"/>
        <tazSink id="993644190" weight="1.00"/>
        <tazSource id="997564555" weight="1.00"/>
        <tazSink id="997564555" weight="1.00"/>
    </taz>
    <taz id="taz_1" shape="421.45,1810.49 1114.06,1548.72 944.97,1317.85 200.33,1423.53 423.07,1808.86 421.45,1810.49" fill="1" color="0,17,255">
        <tazSource id="-1192368978#0" weight="1.00"/>
        <tazSink id="-1192368978#0" weight="1.00"/>
        <tazSource id="-24729908" weight="1.00"/>
        <tazSink id="-24729908" weight="1.00"/>
        <tazSource id="-368361682" weight="1.00"/>
        <tazSink id="-368361682" weight="1.00"/>
        <tazSource id="-431445280#0" weight="1.00"/>
        <tazSink id="-431445280#0" weight="1.00"/>
        <tazSource id="-431445280#1" weight="1.00"/>
        <tazSink id="-431445280#1" weight="1.00"/>
        <tazSource id="-431445280#2" weight="1.00"/>
        <tazSink id="-431445280#2" weight="1.00"/>
        <tazSource id="-431445280#3" weight="1.00"/>
        <tazSink id="-431445280#3" weight="1.00"/>
        <tazSource id="-431445280#4" weight="1.00"/>
        <tazSink id="-431445280#4" weight="1.00"/>
        <tazSource id="-431445280#5" weight="1.00"/>
        <tazSink id="-431445280#5" weight="1.00"/>
        <tazSource id="-431445280#6" weight="1.00"/>
        <tazSink id="-431445280#6" weight="1.00"/>
        <tazSource id="-504338179" weight="1.00"/>
        <tazSink id="-504338179" weight="1.00"/>
        <tazSource id="-510448857" weight="1.00"/>
        <tazSink id="-510448857" weight="1.00"/>
        <tazSource id="-647507946" weight="1.00"/>
        <tazSink id="-647507946" weight="1.00"/>
        <tazSource id="1101926672" weight="1.00"/>
        <tazSink id="1101926672" weight="1.00"/>
        <tazSource id="1192368978#0" weight="1.00"/>
        <tazSink id="1192368978#0" weight="1.00"/>
        <tazSource id="1279005082" weight="1.00"/>
        <tazSink id="1279005082" weight="1.00"/>
        <tazSource id="187024715" weight="1.00"/>
        <tazSource id="-E11" weight="1.00"/>
        <tazSource id="187024719" weight="1.00"/>
        <tazSink id="187024719" weight="1.00"/>
        <tazSource id="187357977" weight="1.00"/>
        <tazSink id="187357977" weight="1.00"/>
        <tazSource id="187405596#0" weight="1.00"/>
        <tazSink id="187405596#0" weight="1.00"/>
        <tazSource id="196971985" weight="1.00"/>
        <tazSource id="E35" weight="1.00"/>
        <tazSource id="286864434#1" weight="1.00"/>
        <tazSource id="E13" weight="1.00"/>
        <tazSource id="303103884#0" weight="1.00"/>
        <tazSink id="303103884#0" weight="1.00"/>
        <tazSource id="303104088" weight="1.00"/>
        <tazSink id="303104088" weight="1.00"/>
        <tazSource id="303104545#0" weight="1.00"/>
        <tazSink id="303104545#0" weight="1.00"/>

        <tazSource id="325053377" weight="1.00"/>
        <tazSink id="325053377" weight="1.00"/>
        <tazSource id="368361682" weight="1.00"/>
        <tazSink id="368361682" weight="1.00"/>
        <tazSource id="372930807" weight="1.00"/>
        <tazSink id="372930807" weight="1.00"/>
        <tazSource id="375081409" weight="1.00"/>
        <tazSink id="375081409" weight="1.00"/>
        <tazSource id="37697524#0" weight="1.00"/>
        <tazSink id="37697524#0" weight="1.00"/>
        <tazSource id="37697524#3" weight="1.00"/>
        <tazSink id="37697524#3" weight="1.00"/>
        <tazSource id="37697524#4" weight="1.00"/>
        <tazSource id="E27" weight="1.00"/>
        <tazSource id="431445279#0" weight="1.00"/>
        <tazSink id="431445279#0" weight="1.00"/>
        <tazSource id="431445280#0" weight="1.00"/>
        <tazSink id="431445280#0" weight="1.00"/>
        <tazSource id="431445280#1" weight="1.00"/>
        <tazSink id="431445280#1" weight="1.00"/>
        <tazSource id="431445280#2" weight="1.00"/>
        <tazSink id="431445280#2" weight="1.00"/>
        <tazSource id="431445280#3" weight="1.00"/>
        <tazSink id="431445280#3" weight="1.00"/>
        <tazSource id="431445280#4" weight="1.00"/>
        <tazSink id="431445280#4" weight="1.00"/>
        <tazSource id="431445280#5" weight="1.00"/>
        <tazSink id="431445280#5" weight="1.00"/>
        <tazSource id="431445280#6" weight="1.00"/>
        <tazSink id="431445280#6" weight="1.00"/>
        <tazSource id="431445280#8" weight="1.00"/>
        <tazSink id="431445280#8" weight="1.00"/>
        <tazSource id="43631333" weight="1.00"/>
        <tazSink id="43631333" weight="1.00"/>
        <tazSource id="504338151" weight="1.00"/>
        <tazSink id="504338151" weight="1.00"/>
        <tazSource id="504338152" weight="1.00"/>
        <tazSink id="504338152" weight="1.00"/>
        <tazSource id="504338154" weight="1.00"/>
        <tazSink id="504338154" weight="1.00"/>
        <tazSource id="504338157#0" weight="1.00"/>
        <tazSink id="504338157#0" weight="1.00"/>
        <tazSource id="504661018" weight="1.00"/>
        <tazSink id="504661018" weight="1.00"/>
        <tazSource id="643522073" weight="1.00"/>
        <tazSink id="643522073" weight="1.00"/>
        <tazSource id="647507946" weight="1.00"/>
        <tazSink id="647507946" weight="1.00"/>
        <tazSource id="693493858" weight="1.00"/>
        <tazSink id="693493858" weight="1.00"/>
        <tazSource id="735197971" weight="1.00"/>
        <tazSink id="735197971" weight="1.00"/>
        <tazSource id="735197972#0" weight="1.00"/>
        <tazSink id="735197972#0" weight="1.00"/>
        <tazSource id="735197972#1" weight="1.00"/>
        <tazSink id="735197972#1" weight="1.00"/>
    </taz>
    <taz id="taz_10" shape="2837.43,657.37 3044.89,734.27 3196.90,525.03 3060.98,330.09 2726.55,344.40 2841.00,662.74 2837.43,657.37" fill="1" color="255,0,234">
        <tazSource id="-1018244909#1" weight="1.00"/>
        <tazSink id="-1018244909#1" weight="1.00"/>
        <tazSource id="-1018244909#3" weight="1.00"/>
        <tazSink id="-1018244909#3" weight="1.00"/>
        <tazSource id="-1018245480" weight="1.00"/>
        <tazSink id="-1018245480" weight="1.00"/>
        <tazSource id="-172136126#2" weight="1.00"/>
        <tazSink id="-172136126#2" weight="1.00"/>
        <tazSource id="-172136126#3" weight="1.00"/>
        <tazSink id="-172136126#3" weight="1.00"/>
        <tazSource id="-172136126#4" weight="1.00"/>
        <tazSink id="-172136126#4" weight="1.00"/>
        <tazSource id="-213492150#3" weight="1.00"/>
        <tazSink id="-213492150#3" weight="1.00"/>
        <tazSource id="-213492220#1" weight="1.00"/>
        <tazSink id="-213492220#1" weight="1.00"/>
        <tazSource id="-224210299#0" weight="1.00"/>
        <tazSink id="-224210299#0" weight="1.00"/>
        <tazSource id="-224210299#2" weight="1.00"/>
        <tazSink id="-224210299#2" weight="1.00"/>
        <tazSource id="-510994962" weight="1.00"/>
        <tazSink id="-510994962" weight="1.00"/>
        <tazSource id="1018244909#3" weight="1.00"/>
        <tazSink id="1018244909#3" weight="1.00"/>
        <tazSource id="1018245480" weight="1.00"/>
        <tazSink id="1018245480" weight="1.00"/>
        <tazSource id="172136126#0" weight="1.00"/>
        <tazSink id="172136126#0" weight="1.00"/>
        <tazSource id="172136126#3" weight="1.00"/>
        <tazSink id="172136126#3" weight="1.00"/>
        <tazSource id="172136126#4" weight="1.00"/>
        <tazSink id="172136126#4" weight="1.00"/>
        <tazSource id="191640909" weight="1.00"/>
        <tazSink id="191640909" weight="1.00"/>
        <tazSource id="213492150#3" weight="1.00"/>
        <tazSink id="213492150#3" weight="1.00"/>
        <tazSource id="213492220#0" weight="1.00"/>
        <tazSink id="213492220#0" weight="1.00"/>
        <tazSource id="224210299#0" weight="1.00"/>
        <tazSink id="224210299#0" weight="1.00"/>
        <tazSource id="224210299#1" weight="1.00"/>
        <tazSink id="224210299#1" weight="1.00"/>
        <tazSource id="506983532#0" weight="1.00"/>
        <tazSink id="506983532#0" weight="1.00"/>
        <tazSource id="510994963" weight="1.00"/>
        <tazSink id="510994963" weight="1.00"/>
        <tazSource id="620427579#0" weight="1.00"/>
        <tazSink id="620427579#0" weight="1.00"/>
        <tazSource id="77694521#0" weight="1.00"/>
        <tazSink id="77694521#0" weight="1.00"/>
    </taz>
    <taz id="taz_11" shape="2945.71,1202.36 3013.67,1023.51 3457.20,1188.05 3389.24,1357.95 2945.71,1204.14 2945.71,1202.36" fill="1" color="0,234,255">
        <tazSource id="-16752120" weight="1.00"/>
        <tazSink id="-16752120" weight="1.00"/>
        <tazSource id="127897753" weight="1.00"/>
        <tazSink id="127897753" weight="1.00"/>
        <tazSource id="16237792" weight="1.00"/>
        <tazSink id="16237792" weight="1.00"/>
        <tazSource id="188337251" weight="1.00"/>
        <tazSink id="188337251" weight="1.00"/>
        <tazSource id="191002276" weight="1.00"/>
        <tazSink id="191002276" weight="1.00"/>
        <tazSource id="30999112" weight="1.00"/>
        <tazSink id="30999112" weight="1.00"/>
        <tazSource id="30999141" weight="1.00"/>
        <tazSink id="30999141" weight="1.00"/>
        <tazSource id="31236879" weight="1.00"/>
        <tazSink id="31236879" weight="1.00"/>
    </taz>
    <taz id="taz_12" shape="2770.65,2006.49 2672.56,1353.46 2668.53,1294.34 2688.68,1228.50 2704.81,1186.85 3377.99,1393.77 3322.90,1937.96 2770.65,2005.15 2770.65,2006.49" fill="1" color="0,255,45">
        <tazSource id="-114959437#0" weight="1.00"/>
        <tazSink id="-114959437#0" weight="1.00"/>
        <tazSource id="-22661274" weight="1.00"/>
        <tazSink id="-22661274" weight="1.00"/>
        <tazSource id="-22661275#0" weight="1.00"/>
        <tazSink id="-22661275#0" weight="1.00"/>
        <tazSource id="-22661275#1" weight="1.00"/>
        <tazSink id="-22661275#1" weight="1.00"/>
        <tazSource id="-22661276#1" weight="1.00"/>
        <tazSink id="-22661276#1" weight="1.00"/>
        <tazSource id="-22661276#2" weight="1.00"/>
        <tazSink id="-22661276#2" weight="1.00"/>
        <tazSource id="-22661276#3" weight="1.00"/>
        <tazSink id="-22661276#3" weight="1.00"/>
        <tazSource id="-22661276#6" weight="1.00"/>
        <tazSink id="-22661276#6" weight="1.00"/>
        <tazSource id="-22661276#7" weight="1.00"/>
        <tazSink id="-22661276#7" weight="1.00"/>
        <tazSource id="-23340219" weight="1.00"/>
        <tazSink id="-23340219" weight="1.00"/>
        <tazSource id="-288239034#2" weight="1.00"/>
        <tazSink id="-288239034#2" weight="1.00"/>
        <tazSource id="-29270653" weight="1.00"/>
        <tazSink id="-29270653" weight="1.00"/>
        <tazSource id="-29270654" weight="1.00"/>
        <tazSink id="-29270654" weight="1.00"/>
        <tazSource id="-29270668" weight="1.00"/>
        <tazSink id="-29270668" weight="1.00"/>
        <tazSource id="-312558169#7" weight="1.00"/>
        <tazSink id="-312558169#7" weight="1.00"/>
        <tazSource id="-312558169#8" weight="1.00"/>
        <tazSink id="-312558169#8" weight="1.00"/>
        <tazSource id="-312558169#9" weight="1.00"/>
        <tazSink id="-312558169#9" weight="1.00"/>
        <tazSource id="-316464783#3" weight="1.00"/>
        <tazSink id="-316464783#3" weight="1.00"/>
        <tazSource id="-349642241" weight="1.00"/>
        <tazSink id="-349642241" weight="1.00"/>
        <tazSource id="-349642244" weight="1.00"/>
        <tazSink id="-349642244" weight="1.00"/>
        <tazSource id="-349642248" weight="1.00"/>
        <tazSink id="-349642248" weight="1.00"/>
        <tazSource id="-349642256" weight="1.00"/>
        <tazSink id="-349642256" weight="1.00"/>
        <tazSource id="-355552851#0" weight="1.00"/>
        <tazSink id="-355552851#0" weight="1.00"/>
        <tazSource id="-355552851#1" weight="1.00"/>
        <tazSink id="-355552851#1" weight="1.00"/>
        <tazSource id="-355553580" weight="1.00"/>
        <tazSink id="-355553580" weight="1.00"/>
        <tazSource id="-511320445" weight="1.00"/>
        <tazSink id="-511320445" weight="1.00"/>
        <tazSource id="-511360215" weight="1.00"/>
        <tazSink id="-511360215" weight="1.00"/>
        <tazSource id="114959437#1" weight="1.00"/>
        <tazSink id="114959437#1" weight="1.00"/>
        <tazSource id="114959444#0" weight="1.00"/>
        <tazSink id="114959444#0" weight="1.00"/>
        <tazSource id="115117541" weight="1.00"/>
        <tazSink id="115117541" weight="1.00"/>
        <tazSource id="115117542#0" weight="1.00"/>
        <tazSink id="115117542#0" weight="1.00"/>
        <tazSource id="1282248051" weight="1.00"/>
        <tazSink id="1282248051" weight="1.00"/>
        <tazSource id="16237797#0" weight="1.00"/>
        <tazSink id="16237797#0" weight="1.00"/>
        <tazSource id="16752115" weight="1.00"/>
        <tazSink id="16752115" weight="1.00"/>
        <tazSource id="16752117" weight="1.00"/>
        <tazSink id="16752117" weight="1.00"/>
        <tazSource id="188337231#0" weight="1.00"/>
        <tazSink id="188337231#0" weight="1.00"/>
        <tazSource id="188337232#0" weight="1.00"/>
        <tazSink id="188337232#0" weight="1.00"/>
        <tazSource id="188337254#0" weight="1.00"/>
        <tazSink id="188337254#0" weight="1.00"/>
        <tazSource id="188337254#1" weight="1.00"/>
        <tazSink id="188337254#1" weight="1.00"/>
        <tazSource id="191002278#0" weight="1.00"/>
        <tazSink id="191002278#0" weight="1.00"/>
        <tazSource id="191355387" weight="1.00"/>
        <tazSink id="191355387" weight="1.00"/>
        <tazSource id="22558472#0" weight="1.00"/>
        <tazSink id="22558472#0" weight="1.00"/>
        <tazSource id="22558474#0" weight="1.00"/>
        <tazSink id="22558474#0" weight="1.00"/>
        <tazSource id="22661275#1" weight="1.00"/>
        <tazSink id="22661275#1" weight="1.00"/>
        <tazSource id="22661276#1" weight="1.00"/>
        <tazSink id="22661276#1" weight="1.00"/>
        <tazSource id="22661276#2" weight="1.00"/>
        <tazSink id="22661276#2" weight="1.00"/>
        <tazSource id="22661276#3" weight="1.00"/>
        <tazSink id="22661276#3" weight="1.00"/>
        <tazSource id="22661276#6" weight="1.00"/>
        <tazSink id="22661276#6" weight="1.00"/>
        <tazSource id="22661276#7" weight="1.00"/>
        <tazSink id="22661276#7" weight="1.00"/>
        <tazSource id="22661276#9" weight="1.00"/>
        <tazSink id="22661276#9" weight="1.00"/>
        <tazSource id="23340219" weight="1.00"/>
        <tazSink id="23340219" weight="1.00"/>
        <tazSource id="29270654" weight="1.00"/>
        <tazSink id="29270654" weight="1.00"/>
        <tazSource id="29270655" weight="1.00"/>
        <tazSink id="29270655" weight="1.00"/>
        <tazSource id="303851128" weight="1.00"/>
        <tazSink id="303851128" weight="1.00"/>
        <tazSource id="312558169#7" weight="1.00"/>
        <tazSink id="312558169#7" weight="1.00"/>
        <tazSource id="312558169#8" weight="1.00"/>
        <tazSink id="312558169#8" weight="1.00"/>
        <tazSource id="312558169#9" weight="1.00"/>
        <tazSink id="312558169#9" weight="1.00"/>
        <tazSource id="316463088" weight="1.00"/>
        <tazSink id="316463088" weight="1.00"/>
        <tazSource id="325088180#0" weight="1.00"/>
        <tazSink id="325088180#0" weight="1.00"/>
        <tazSource id="325088180#1" weight="1.00"/>
        <tazSink id="325088180#1" weight="1.00"/>
        <tazSource id="325088180#2" weight="1.00"/>
        <tazSink id="325088180#2" weight="1.00"/>
        <tazSource id="349642241" weight="1.00"/>
        <tazSink id="349642241" weight="1.00"/>
        <tazSource id="349642244" weight="1.00"/>
        <tazSink id="349642244" weight="1.00"/>
        <tazSource id="349642248" weight="1.00"/>
        <tazSink id="349642248" weight="1.00"/>
        <tazSource id="349642256" weight="1.00"/>
        <tazSink id="349642256" weight="1.00"/>
        <tazSource id="355552851#0" weight="1.00"/>
        <tazSink id="355552851#0" weight="1.00"/>
        <tazSource id="355552851#1" weight="1.00"/>
        <tazSink id="355552851#1" weight="1.00"/>
        <tazSource id="355552851#2" weight="1.00"/>
        <tazSink id="355552851#2" weight="1.00"/>
        <tazSource id="355553580" weight="1.00"/>
        <tazSink id="355553580" weight="1.00"/>
        <tazSource id="361627212#0" weight="1.00"/>
        <tazSink id="361627212#0" weight="1.00"/>
        <tazSource id="361627212#1" weight="1.00"/>
        <tazSink id="361627212#1" weight="1.00"/>
        <tazSource id="361627212#2" weight="1.00"/>
        <tazSink id="361627212#2" weight="1.00"/>
        <tazSource id="371352966#0" weight="1.00"/>
        <tazSink id="371352966#0" weight="1.00"/>
        <tazSource id="371352966#2" weight="1.00"/>
        <tazSink id="371352966#2" weight="1.00"/>
        <tazSource id="383469671" weight="1.00"/>
        <tazSink id="383469671" weight="1.00"/>
        <tazSource id="511282425" weight="1.00"/>
        <tazSink id="511282425" weight="1.00"/>
        <tazSource id="511282426" weight="1.00"/>
        <tazSink id="511282426" weight="1.00"/>
        <tazSource id="511360215" weight="1.00"/>
        <tazSink id="511360215" weight="1.00"/>
        <tazSource id="787515406" weight="1.00"/>
        <tazSink id="787515406" weight="1.00"/>
        <tazSource id="899622457" weight="1.00"/>
        <tazSink id="899622457" weight="1.00"/>
        <tazSource id="899622460" weight="1.00"/>
        <tazSink id="899622460" weight="1.00"/>
    </taz>
    <taz id="taz_13" shape="2969.93,2372.81 2943.05,2051.67 3135.20,2040.92 3143.26,2355.34 2968.58,2372.81 2969.93,2372.81" fill="1" color="242,255,0">
        <tazSource id="-222919722#2" weight="1.00"/>
        <tazSink id="-222919722#2" weight="1.00"/>
        <tazSource id="-222919722#3" weight="1.00"/>
        <tazSink id="-222919722#3" weight="1.00"/>
        <tazSource id="-22788986#0" weight="1.00"/>
        <tazSink id="-22788986#0" weight="1.00"/>
        <tazSource id="-22788986#1" weight="1.00"/>
        <tazSink id="-22788986#1" weight="1.00"/>
        <tazSource id="-22788986#2" weight="1.00"/>
        <tazSink id="-22788986#2" weight="1.00"/>
        <tazSource id="-22788986#3" weight="1.00"/>
        <tazSink id="-22788986#3" weight="1.00"/>
        <tazSource id="-22788986#4" weight="1.00"/>
        <tazSink id="-22788986#4" weight="1.00"/>
        <tazSource id="-505617519" weight="1.00"/>
        <tazSink id="-505617519" weight="1.00"/>
        <tazSource id="-E5" weight="1.00"/>
        <tazSink id="-E5" weight="1.00"/>
        <tazSource id="-E6" weight="1.00"/>
        <tazSink id="-E6" weight="1.00"/>
        <tazSource id="115117543#0" weight="1.00"/>
        <tazSink id="115117543#0" weight="1.00"/>
        <tazSource id="188337230#0" weight="1.00"/>
        <tazSink id="188337230#0" weight="1.00"/>
        <tazSource id="222919722#0" weight="1.00"/>
        <tazSink id="222919722#0" weight="1.00"/>
        <tazSource id="222919722#3" weight="1.00"/>
        <tazSink id="222919722#3" weight="1.00"/>
        <tazSource id="22788986#0" weight="1.00"/>
        <tazSink id="22788986#0" weight="1.00"/>
        <tazSource id="22788986#1" weight="1.00"/>
        <tazSink id="22788986#1" weight="1.00"/>
        <tazSource id="22788986#2" weight="1.00"/>
        <tazSink id="22788986#2" weight="1.00"/>
        <tazSource id="22788986#3" weight="1.00"/>
        <tazSink id="22788986#3" weight="1.00"/>
        <tazSource id="22788986#4" weight="1.00"/>
        <tazSink id="22788986#4" weight="1.00"/>
        <tazSource id="505617519" weight="1.00"/>
        <tazSink id="505617519" weight="1.00"/>
        <tazSource id="E5" weight="1.00"/>
        <tazSink id="E5" weight="1.00"/>
        <tazSource id="E6" weight="1.00"/>
        <tazSink id="E6" weight="1.00"/>
    </taz>
    <taz id="taz_14" shape="3148.24,2038.76 3141.98,1968.56 3311.85,1949.13 3384.56,2062.58 3153.89,2088.91 3148.24,2036.88 3148.24,2038.76" fill="1" color="255,0,246">
        <tazSource id="-22661276#0" weight="1.00"/>
        <tazSink id="-22661276#0" weight="1.00"/>
        <tazSource id="-308602826#0" weight="1.00"/>
        <tazSink id="-308602826#0" weight="1.00"/>
        <tazSource id="-E3" weight="1.00"/>
        <tazSink id="-E3" weight="1.00"/>
        <tazSource id="115616476" weight="1.00"/>
        <tazSink id="115616476" weight="1.00"/>
        <tazSource id="115616477#0" weight="1.00"/>
        <tazSink id="115616477#0" weight="1.00"/>
        <tazSource id="16313048#0" weight="1.00"/>
        <tazSink id="16313048#0" weight="1.00"/>
        <tazSource id="16313052#0" weight="1.00"/>
        <tazSink id="16313052#0" weight="1.00"/>
        <tazSource id="16313052#4" weight="1.00"/>
        <tazSink id="16313052#4" weight="1.00"/>
        <tazSource id="305047819" weight="1.00"/>
        <tazSink id="305047819" weight="1.00"/>
        <tazSource id="505617512" weight="1.00"/>
        <tazSink id="505617512" weight="1.00"/>
        <tazSource id="507006482#0" weight="1.00"/>
        <tazSink id="507006482#0" weight="1.00"/>
        <tazSource id="E3" weight="1.00"/>
        <tazSink id="E3" weight="1.00"/>
    </taz>
    <taz id="taz_15" shape="2416.56,2257.56 2425.51,2077.19 2490.03,2056.94 2511.22,2248.14 2415.62,2256.62 2416.56,2257.56" fill="1" color="255,0,21">
        <tazSource id="128228669#0" weight="1.00"/>
        <tazSink id="128228669#0" weight="1.00"/>
        <tazSource id="128228669#1" weight="1.00"/>
        <tazSink id="128228669#1" weight="1.00"/>
        <tazSource id="28354638#0" weight="1.00"/>
        <tazSink id="28354638#0" weight="1.00"/>
        <tazSource id="28354638#2" weight="1.00"/>
        <tazSink id="28354638#2" weight="1.00"/>
        <tazSource id="597664403" weight="1.00"/>
        <tazSink id="597664403" weight="1.00"/>
    </taz>
    <taz id="taz_16" shape="2003.13,2138.31 2032.00,2045.03 2302.96,2073.91 2357.37,2181.62 2234.11,2241.59 2003.13,2136.09 2003.13,2138.31" fill="1" color="255,141,0">
        <tazSource id="-1270713703" weight="1.00"/>
        <tazSink id="-1270713703" weight="1.00"/>
        <tazSource id="-455164872" weight="1.00"/>
        <tazSink id="-455164872" weight="1.00"/>
        <tazSource id="1018346560" weight="1.00"/>
        <tazSink id="1018346560" weight="1.00"/>
        <tazSource id="115083607#0" weight="1.00"/>
        <tazSink id="115083607#0" weight="1.00"/>
        <tazSource id="1270591223#0" weight="1.00"/>
        <tazSink id="1270591223#0" weight="1.00"/>
        <tazSource id="1270591223#1" weight="1.00"/>
        <tazSink id="1270591223#1" weight="1.00"/>
        <tazSource id="1270713703" weight="1.00"/>
        <tazSink id="1270713703" weight="1.00"/>
        <tazSource id="190721347#4" weight="1.00"/>
        <tazSink id="190721347#4" weight="1.00"/>
        <tazSource id="44498474#0" weight="1.00"/>
        <tazSink id="44498474#0" weight="1.00"/>
        <tazSource id="44498474#3" weight="1.00"/>
        <tazSink id="44498474#3" weight="1.00"/>
        <tazSource id="455164872" weight="1.00"/>
        <tazSink id="455164872" weight="1.00"/>
        <tazSource id="455164873#0" weight="1.00"/>
        <tazSink id="455164873#0" weight="1.00"/>
        <tazSource id="455164873#1" weight="1.00"/>
        <tazSink id="455164873#1" weight="1.00"/>
        <tazSource id="623319224" weight="1.00"/>
        <tazSink id="623319224" weight="1.00"/>
        <tazSource id="848343745" weight="1.00"/>
        <tazSink id="848343745" weight="1.00"/>
    </taz>
    <taz id="taz_17" shape="1994.83,2256.66 1937.22,2151.68 1995.41,2135.89 2054.19,2252.27 1993.95,2256.07 1994.83,2256.66" fill="1" color="255,0,251">
        <tazSource id="-675663026" weight="1.00"/>
        <tazSink id="-675663026" weight="1.00"/>
        <tazSource id="675663026" weight="1.00"/>
        <tazSink id="675663026" weight="1.00"/>
    </taz>
    <taz id="taz_19" shape="1256.76,2121.75 1285.03,1930.75 1424.32,2001.08 1330.54,2141.06 1256.76,2121.06 1256.76,2121.75" fill="1" color="104,0,255">
        <tazSource id="1107387846#0" weight="1.00"/>
        <tazSink id="1107387846#0" weight="1.00"/>
        <tazSource id="16584787" weight="1.00"/>
        <tazSink id="16584787" weight="1.00"/>
        <tazSource id="16584790" weight="1.00"/>
        <tazSink id="16584790" weight="1.00"/>
        <tazSource id="16584792#0" weight="1.00"/>
        <tazSink id="16584792#0" weight="1.00"/>
    </taz>
    <taz id="taz_2" shape="1057.15,1457.68 1140.07,1413.78 1379.07,1911.29 1208.36,1903.16 1151.45,1591.00 1058.78,1459.30 1057.15,1457.68" fill="1" color="255,0,248">
        <tazSource id="-16584770" weight="1.00"/>
        <tazSink id="-16584770" weight="1.00"/>
        <tazSource id="-24320105" weight="1.00"/>
        <tazSink id="-24320105" weight="1.00"/>
        <tazSource id="-349584571#1" weight="1.00"/>
        <tazSink id="-349584571#1" weight="1.00"/>
        <tazSource id="-37698287#2" weight="1.00"/>
        <tazSink id="-37698287#2" weight="1.00"/>
        <tazSource id="-427901089" weight="1.00"/>
        <tazSink id="-427901089" weight="1.00"/>
        <tazSource id="-682403232#0" weight="1.00"/>
        <tazSink id="-682403232#0" weight="1.00"/>
        <tazSource id="-693493859#2" weight="1.00"/>
        <tazSink id="-693493859#2" weight="1.00"/>
        <tazSource id="1011207715" weight="1.00"/>
        <tazSource id="113983453#0" weight="1.00"/>
        <tazSink id="113983453#0" weight="1.00"/>
        <tazSource id="114017941#1" weight="1.00"/>
        <tazSource id="16584757#0" weight="1.00"/>