<?xml version="1.0" encoding="UTF-8"?>

<!-- generated on 2024-05-19 15:10:01.335785 by osmWebWizard.py v1_19_0+0000-baa66a0f364
<configuration>
    <net-file value="D:\!! AA\2024-05-19-15-09-45\osm.net.xml.gz"/>
    <output-trip-file value="D:\!! AA\2024-05-19-15-09-45\osm.passenger.trips.xml"/>
    <route-file value="D:\!! AA\2024-05-19-15-09-45\osm.passenger.rou.xml"/>
    <prefix value="veh"/>
    <trip-attributes value="departLane=&quot;best&quot;"/>
    <fringe-start-attributes value="departSpeed=&quot;max&quot;"/>
    <vehicle-class value="passenger"/>
    <lanes value="True"/>
    <fringe-factor value="5"/>
    <allow-fringe.min-length value="1000.0"/>
    <via-edge-types value="highway.motorway,highway.motorway_link,highway.trunk_link,highway.primary_link,highway.secondary_link,highway.tertiary_link"/>
    <min-distance value="300.0"/>
    <min-distance.fringe value="10.0"/>
    <remove-loops value="True"/>
    <validate value="True"/>
    <insertion-density value="12.0"/>
</configuration>
-->

<!-- generated on 2024-05-19 15:10:00 by Eclipse SUMO duarouter Version 1.19.0
<configuration xmlns:xsi="http://www.w3.org/2001/XMLSchema-instance" xsi:noNamespaceSchemaLocation="http://sumo.dlr.de/xsd/duarouterConfiguration.xsd">

    <input>
        <net-file value="D:\!! AA\2024-05-19-15-09-45\osm.net.xml.gz"/>
        <route-files value="D:\!! AA\2024-05-19-15-09-45\osm.passenger.trips.xml"/>
    </input>

    <output>
        <output-file value="D:\!! AA\2024-05-19-15-09-45\osm.passenger.trips.xml.tmp"/>
        <alternatives-output value="NUL"/>
        <write-trips value="true"/>
    </output>

    <processing>
        <remove-loops value="true"/>
    </processing>

    <time>
        <begin value="0.0"/>
        <end value="3600.0"/>
    </time>

    <report>
        <no-warnings value="true"/>
        <ignore-errors value="true"/>
        <no-step-log value="true"/>
    </report>

</configuration>
-->

<routes xmlns:xsi="http://www.w3.org/2001/XMLSchema-instance" xsi:noNamespaceSchemaLocation="http://sumo.dlr.de/xsd/routes_file.xsd">
    <vType id="veh_passenger" vClass="passenger"/>
    <trip id="veh0" type="veh_passenger" depart="0.00" departLane="best" from="358489204#0" to="172136126#4"/>
    <trip id="veh1" type="veh_passenger" depart="2.23" departLane="best" departSpeed="max" from="358489204#0" to="172136126#4"/>
    <trip id="veh3" type="veh_passenger" depart="6.69" departLane="best" from="358489204#0" to="172136126#4"/>
    <trip id="veh4" type="veh_passenger" depart="8.91" departLane="best" from="358489204#0" to="172136126#4"/>
    <trip id="veh6" type="veh_passenger" depart="13.37" departLane="best" from="358489204#0" to="172136126#4"/>
    <trip id="veh7" type="veh_passenger" depart="15.60" departLane="best" from="358489204#0" to="172136126#4"/>
    <trip id="veh8" type="veh_passenger" depart="17.83" departLane="best" departSpeed="max" from="358489204#0" to="172136126#4"/>
    <trip id="veh10" type="veh_passenger" depart="22.28" departLane="best" from="358489204#0" to="172136126#4"/>
    <trip id="veh11" type="veh_passenger" depart="24.51" departLane="best" departSpeed="max" from="358489204#0" to="172136126#4"/>
    <trip id="veh12" type="veh_passenger" depart="26.74" departLane="best" departSpeed="max" from="358489204#0" to="172136126#4"/>
    <trip id="veh13" type="veh_passenger" depart="28.97" departLane="best" from="358489204#0" to="172136126#4"/>
    <trip id="veh14" type="veh_passenger" depart="31.20" departLane="best" from="358489204#0" to="172136126#4"/>
    <trip id="veh15" type="veh_passenger" depart="33.43" departLane="best" from="358489204#0" to="172136126#4"/>

</routes>
