<?xml version="1.0" encoding="UTF-8"?>

<!-- generated on 2024-04-09 15:13:58.477668 by osmWebWizard.py v1_19_0+0000-baa66a0f364
<configuration>
    <net-file value="D:\!! Projekty\magister\2024-04-09-15-13-45\osm.net.xml.gz"/>
    <output-trip-file value="D:\!! Projekty\magister\2024-04-09-15-13-45\osm.passenger.trips.xml"/>
    <route-file value="D:\!! Projekty\magister\2024-04-09-15-13-45\osm.passenger.rou.xml"/>
    <prefix value="veh"/>
    <trip-attributes value="departLane=&quot;best&quot;"/>
    <fringe-start-attributes value="departSpeed=&quot;max&quot;"/>
    <vehicle-class value="passenger"/>
    <lanes value="True"/>
    <fringe-factor value="5"/>
    <allow-fringe.min-length value="1000.0"/>
    <via-edge-types value="highway.motorway,highway.motorway_link,highway.trunk_link,highway.primary_link,highway.secondary_link,highway.tertiary_link"/>
    <min-distance value="300.0"/>
    <min-distance.fringe value="10.0"/>
    <remove-loops value="True"/>
    <validate value="True"/>
    <insertion-density value="12.0"/>
</configuration>
-->

<!-- generated on 2024-04-09 15:13:58 by Eclipse SUMO duarouter Version 1.19.0
<configuration xmlns:xsi="http://www.w3.org/2001/XMLSchema-instance" xsi:noNamespaceSchemaLocation="http://sumo.dlr.de/xsd/duarouterConfiguration.xsd">

    <input>
        <net-file value="D:\!! Projekty\magister\2024-04-09-15-13-45\osm.net.xml.gz"/>
        <route-files value="D:\!! Projekty\magister\2024-04-09-15-13-45\osm.passenger.trips.xml"/>
    </input>

    <output>
        <output-file value="D:\!! Projekty\magister\2024-04-09-15-13-45\osm.passenger.trips.xml.tmp"/>
        <alternatives-output value="NUL"/>
        <write-trips value="true"/>
    </output>

    <processing>
        <remove-loops value="true"/>
    </processing>

    <time>
        <begin value="0.0"/>
        <end value="3600.0"/>
    </time>

    <report>
        <no-warnings value="true"/>
        <ignore-errors value="true"/>
        <no-step-log value="true"/>
    </report>

</configuration>
-->

<routes xmlns:xsi="http://www.w3.org/2001/XMLSchema-instance" xsi:noNamespaceSchemaLocation="http://sumo.dlr.de/xsd/routes_file.xsd">
    <vType id="veh_passenger" vClass="passenger"/>
    <trip id="veh1" type="veh_passenger" depart="2.15" departLane="best" from="-411763899#2" to="-36956854#1"/>
    <trip id="veh2" type="veh_passenger" depart="4.29" departLane="best" from="36956853#1" to="311366765#4"/>
    <trip id="veh3" type="veh_passenger" depart="6.44" departLane="best" from="-549008048#1" to="-140617520"/>
    <trip id="veh4" type="veh_passenger" depart="8.58" departLane="best" from="1062682404#2" to="-1152543589#1"/>
    <trip id="veh5" type="veh_passenger" depart="10.73" departLane="best" departSpeed="max" from="-36957011#1" to="-140614056#3"/>
    <trip id="veh6" type="veh_passenger" depart="12.88" departLane="best" from="-1189727142#6" to="288875956#6"/>
    <trip id="veh7" type="veh_passenger" depart="15.02" departLane="best" from="249487862#6" to="168324533#3"/>
    <trip id="veh8" type="veh_passenger" depart="17.17" departLane="best" departSpeed="max" from="-36957011#1" to="237264805#4"/>
    <trip id="veh9" type="veh_passenger" depart="19.32" departLane="best" from="36989627#1" to="-1110496032#0"/>
    <trip id="veh10" type="veh_passenger" depart="21.46" departLane="best" from="36972189#3" to="319023546#1"/>
    <trip id="veh11" type="veh_passenger" depart="23.61" departLane="best" from="-549008046#2" to="-249826562"/>
    <trip id="veh12" type="veh_passenger" depart="25.75" departLane="best" from="769716780" to="-549008048#1"/>
    <trip id="veh13" type="veh_passenger" depart="27.90" departLane="best" from="-150031800#1" to="150031801#1"/>
    <trip id="veh14" type="veh_passenger" depart="30.05" departLane="best" from="-42340647#3" to="249165229#2"/>
    <trip id="veh15" type="veh_passenger" depart="32.19" departLane="best" departSpeed="max" from="36989627#0" to="-36957243#1"/>
    <trip id="veh16" type="veh_passenger" depart="34.34" departLane="best" from="140614070#0" to="794939789"/>
    <trip id="veh17" type="veh_passenger" depart="36.48" departLane="best" departSpeed="max" from="-769459831" to="186938877#3"/>
    <trip id="veh18" type="veh_passenger" depart="38.63" departLane="best" from="42340631#1" to="249176874#0"/>
    <trip id="veh19" type="veh_passenger" depart="40.78" departLane="best" from="-437406387#0" to="194355539#0"/>
    <trip id="veh20" type="veh_passenger" depart="42.92" departLane="best" from="311366764#1" to="-1256732275"/>
    <trip id="veh21" type="veh_passenger" depart="45.07" departLane="best" from="1016548685" to="-42340628#3"/>
    <trip id="veh22" type="veh_passenger" depart="47.22" departLane="best" departSpeed="max" from="-140616613#4" to="-36957244#0"/>
    <trip id="veh23" type="veh_passenger" depart="49.36" departLane="best" from="-168324533#1" to="411763899#0"/>
    <trip id="veh25" type="veh_passenger" depart="53.65" departLane="best" departSpeed="max" from="-723141077" to="-311366769#2"/>
    <trip id="veh26" type="veh_passenger" depart="55.80" departLane="best" departSpeed="max" from="-36972187#2" to="711698638#0"/>
    <trip id="veh27" type="veh_passenger" depart="57.95" departLane="best" from="249487862#2" to="249165234"/>
    <trip id="veh28" type="veh_passenger" depart="60.09" departLane="best" from="249923004#1" to="36957242#1"/>
    <trip id="veh29" type="veh_passenger" depart="62.24" departLane="best" from="249487869" to="792723120#6"/>
    <trip id="veh30" type="veh_passenger" depart="64.38" departLane="best" from="-969892707" to="249487855"/>
    <trip id="veh31" type="veh_passenger" depart="66.53" departLane="best" from="150031801#2" to="-311366769#3"/>
    <trip id="veh32" type="veh_passenger" depart="68.68" departLane="best" from="42340645#4" to="36964175#6"/>
    <trip id="veh33" type="veh_passenger" depart="70.82" departLane="best" from="36957243#1" to="1187945156#0"/>
    <trip id="veh34" type="veh_passenger" depart="72.97" departLane="best" from="438406105#3" to="36972186#2"/>
    <trip id="veh35" type="veh_passenger" depart="75.12" departLane="best" from="-36956522#2" to="720901625"/>
    <trip id="veh36" type="veh_passenger" depart="77.26" departLane="best" from="-439667057#0" to="-438406105#1"/>
    <trip id="veh37" type="veh_passenger" depart="79.41" departLane="best" from="249695806" to="549008053#0"/>
    <trip id="veh38" type="veh_passenger" depart="81.55" departLane="best" from="549008065" to="1202362037"/>
    <trip id="veh39" type="veh_passenger" depart="83.70" departLane="best" from="-36972186#1" to="-36963456#2"/>
    <trip id="veh40" type="veh_passenger" depart="85.85" departLane="best" departSpeed="max" from="168324531" to="-36964173"/>
    <trip id="veh41" type="veh_passenger" depart="87.99" departLane="best" from="186938890#10" to="549008060#0"/>
    <trip id="veh42" type="veh_passenger" depart="90.14" departLane="best" from="-981997383" to="319023556#2"/>
    <trip id="veh43" type="veh_passenger" depart="92.29" departLane="best" from="979356570" to="140614062#3"/>
    <trip id="veh44" type="veh_passenger" depart="94.43" departLane="best" from="150031799#1" to="1256732277"/>
    <trip id="veh45" type="veh_passenger" depart="96.58" departLane="best" departSpeed="max" from="-237256870" to="249482990"/>
    <trip id="veh46" type="veh_passenger" depart="98.72" departLane="best" from="36964172#1" to="1132700068"/>
    <trip id="veh47" type="veh_passenger" depart="100.87" departLane="best" from="-140614047#12" to="-855615423"/>
    <trip id="veh48" type="veh_passenger" depart="103.02" departLane="best" from="976776474" to="140617521#1"/>
    <trip id="veh49" type="veh_passenger" depart="105.16" departLane="best" from="778096187" to="439667057#1"/>
    <trip id="veh50" type="veh_passenger" depart="107.31" departLane="best" from="1152230291#1" to="36957012#1"/>
    <trip id="veh51" type="veh_passenger" depart="109.45" departLane="best" from="251450284#3" to="-150031801#1"/>
    <trip id="veh52" type="veh_passenger" depart="111.60" departLane="best" departSpeed="max" from="-36972187#2" to="249487862#1"/>
    <trip id="veh53" type="veh_passenger" depart="113.75" departLane="best" departSpeed="max" from="-237257498" to="1134433968#3"/>
    <trip id="veh54" type="veh_passenger" depart="115.89" departLane="best" from="1134324426#7" to="777538770"/>
    <trip id="veh55" type="veh_passenger" depart="118.04" departLane="best" from="438413694" to="-36964174"/>
    <trip id="veh56" type="veh_passenger" depart="120.19" departLane="best" from="-1261923927#0" to="-251450284#0"/>
    <trip id="veh57" type="veh_passenger" depart="122.33" departLane="best" from="549008063#1" to="548823272"/>
    <trip id="veh58" type="veh_passenger" depart="124.48" departLane="best" from="-42340647#1" to="249487855"/>
    <trip id="veh59" type="veh_passenger" depart="126.62" departLane="best" from="36961382#4" to="155281469#2"/>
    <trip id="veh60" type="veh_passenger" depart="128.77" departLane="best" from="36963793" to="140617521#1"/>
    <trip id="veh61" type="veh_passenger" depart="130.92" departLane="best" departSpeed="max" from="-1016548687" to="439667057#9"/>
    <trip id="veh62" type="veh_passenger" depart="133.06" departLane="best" from="-1187945156#1" to="-549150573#3"/>
    <trip id="veh63" type="veh_passenger" depart="135.21" departLane="best" from="439667057#5" to="42340649#1"/>
    <trip id="veh64" type="veh_passenger" depart="137.35" departLane="best" departSpeed="max" from="-431657174" to="140609499#0"/>
    <trip id="veh65" type="veh_passenger" depart="139.50" departLane="best" from="-439667057#3" to="762330824"/>
    <trip id="veh66" type="veh_passenger" depart="141.65" departLane="best" departSpeed="max" from="-140617521#1" to="140609512"/>
    <trip id="veh67" type="veh_passenger" depart="143.79" departLane="best" from="-140614047#4" to="36963828#1"/>
    <trip id="veh68" type="veh_passenger" depart="145.94" departLane="best" from="36962798#1" to="-248971812#2"/>
    <trip id="veh69" type="veh_passenger" depart="148.09" departLane="best" from="1152543589#1" to="186938877#12"/>
    <trip id="veh70" type="veh_passenger" depart="150.23" departLane="best" from="-36972186#2" to="549008000#0"/>
    <trip id="veh71" type="veh_passenger" depart="152.38" departLane="best" from="1065134546#3" to="-311366769#6"/>
    <trip id="veh72" type="veh_passenger" depart="154.52" departLane="best" from="140614083#0" to="-36957243#1"/>
    <trip id="veh73" type="veh_passenger" depart="156.67" departLane="best" from="319023535#0" to="-437412804"/>
    <trip id="veh74" type="veh_passenger" depart="158.82" departLane="best" from="976776473" to="249560919"/>
    <trip id="veh75" type="veh_passenger" depart="160.96" departLane="best" departSpeed="max" from="1110496032#0" to="140614083#1"/>
    <trip id="veh76" type="veh_passenger" depart="163.11" departLane="best" from="-237382742#3" to="-36957009#2"/>
    <trip id="veh77" type="veh_passenger" depart="165.25" departLane="best" from="549008043#0" to="237264805#3"/>
    <trip id="veh79" type="veh_passenger" depart="169.55" departLane="best" from="140614056#3" to="-249487848#0"/>
    <trip id="veh80" type="veh_passenger" depart="171.69" departLane="best" from="36957243#1" to="549008070"/>
    <trip id="veh81" type="veh_passenger" depart="173.84" departLane="best" from="-42340664#5" to="140614047#0"/>
    <trip id="veh82" type="veh_passenger" depart="175.99" departLane="best" departSpeed="max" from="-36963211#1" to="288875956#3"/>
    <trip id="veh83" type="veh_passenger" depart="178.13" departLane="best" from="36957009#2" to="-249165233"/>
    <trip id="veh84" type="veh_passenger" depart="180.28" departLane="best" from="-549118415#2" to="194296246#0"/>
    <trip id="veh85" type="veh_passenger" depart="182.42" departLane="best" departSpeed="max" from="1152543589#0" to="36972186#3"/>
    <trip id="veh86" type="veh_passenger" depart="184.57" departLane="best" departSpeed="max" from="36989627#0" to="-285555134"/>
    <trip id="veh87" type="veh_passenger" depart="186.72" departLane="best" from="-168324530#0" to="1134433961#2"/>
    <trip id="veh88" type="veh_passenger" depart="188.86" departLane="best" from="-1073046199" to="1256732275"/>
    <trip id="veh89" type="veh_passenger" depart="191.01" departLane="best" from="-319023554#0" to="311366764#2"/>
    <trip id="veh90" type="veh_passenger" depart="193.15" departLane="best" from="896552241#1" to="155281469#1"/>
    <trip id="veh91" type="veh_passenger" depart="195.30" departLane="best" from="1030991932" to="-549008048#8"/>
    <trip id="veh92" type="veh_passenger" depart="197.45" departLane="best" from="437406387#0" to="-36963456#7"/>
    <trip id="veh93" type="veh_passenger" depart="199.59" departLane="best" from="-311366765#6" to="1164247765"/>
    <trip id="veh94" type="veh_passenger" depart="201.74" departLane="best" from="1062682404#2" to="1149133719#1"/>
    <trip id="veh95" type="veh_passenger" depart="203.89" departLane="best" from="36964165#2" to="549118408"/>
    <trip id="veh96" type="veh_passenger" depart="206.03" departLane="best" departSpeed="max" from="1117096688#0" to="439667057#2"/>
    <trip id="veh97" type="veh_passenger" depart="208.18" departLane="best" from="984386883" to="42340655#0"/>
    <trip id="veh98" type="veh_passenger" depart="210.32" departLane="best" from="778096182" to="549118415#4"/>
    <trip id="veh99" type="veh_passenger" depart="212.47" departLane="best" from="42340648" to="-249922999"/>
    <trip id="veh100" type="veh_passenger" depart="214.62" departLane="best" from="1193743238#0" to="-319023527#2"/>
    <trip id="veh101" type="veh_passenger" depart="216.76" departLane="best" from="1016548685" to="140609508#1"/>
    <trip id="veh102" type="veh_passenger" depart="218.91" departLane="best" departSpeed="max" from="-769459831" to="962307428#0"/>
    <trip id="veh103" type="veh_passenger" depart="221.06" departLane="best" from="1134324426#9" to="1134324426#0"/>
    <trip id="veh104" type="veh_passenger" depart="223.20" departLane="best" from="769716780" to="976776474"/>
    <trip id="veh105" type="veh_passenger" depart="225.35" departLane="best" from="150031800#1" to="36957011#1"/>
    <trip id="veh106" type="veh_passenger" depart="227.49" departLane="best" from="249487848#0" to="-42340645#2"/>
    <trip id="veh107" type="veh_passenger" depart="229.64" departLane="best" from="778096182" to="194355539#4"/>
    <trip id="veh108" type="veh_passenger" depart="231.79" departLane="best" from="-140616613#2" to="36963455#0"/>
    <trip id="veh109" type="veh_passenger" depart="233.93" departLane="best" departSpeed="max" from="-140609539" to="237256870"/>
    <trip id="veh110" type="veh_passenger" depart="236.08" departLane="best" from="126259614#0" to="438404111#0"/>
    <trip id="veh111" type="veh_passenger" depart="238.22" departLane="best" from="-249487848#7" to="777538789#1"/>
    <trip id="veh112" type="veh_passenger" depart="240.37" departLane="best" departSpeed="max" from="-140616613#4" to="-265761646#2"/>
    <trip id="veh113" type="veh_passenger" depart="242.52" departLane="best" from="194296246#1" to="311366765#0"/>
    <trip id="veh114" type="veh_passenger" depart="244.66" departLane="best" from="549008043#0" to="-36963456#1"/>
    <trip id="veh115" type="veh_passenger" depart="246.81" departLane="best" from="194296246#1" to="-249176876#1"/>
    <trip id="veh116" type="veh_passenger" depart="248.96" departLane="best" from="1046119029#1" to="237214518#1"/>
    <trip id="veh117" type="veh_passenger" depart="251.10" departLane="best" from="-140614047#14" to="709217977#6"/>
    <trip id="veh118" type="veh_passenger" depart="253.25" departLane="best" departSpeed="max" from="-319023546#1" to="36957009#8"/>
    <trip id="veh119" type="veh_passenger" depart="255.39" departLane="best" from="-36963456#2" to="1046107949"/>
    <trip id="veh120" type="veh_passenger" depart="257.54" departLane="best" departSpeed="max" from="250078902" to="42340646#4"/>
    <trip id="veh121" type="veh_passenger" depart="259.69" departLane="best" from="438407019#1" to="-36963456#7"/>
    <trip id="veh122" type="veh_passenger" depart="261.83" departLane="best" departSpeed="max" from="-140614074" to="-1193743238#0"/>
    <trip id="veh123" type="veh_passenger" depart="263.98" departLane="best" departSpeed="max" from="-140614074" to="319023527#1"/>
    <trip id="veh124" type="veh_passenger" depart="266.12" departLane="best" from="-36972186#2" to="709217977#4"/>
    <trip id="veh125" type="veh_passenger" depart="268.27" departLane="best" from="-459849387" to="549008039#3"/>
    <trip id="veh127" type="veh_passenger" depart="272.56" departLane="best" from="42340639" to="328555672"/>
    <trip id="veh128" type="veh_passenger" depart="274.71" departLane="best" from="237365954" to="971699943#0"/>
    <trip id="veh129" type="veh_passenger" depart="276.86" departLane="best" from="249688232#1" to="-1117096688#0"/>
    <trip id="veh130" type="veh_passenger" depart="279.00" departLane="best" from="42340607" to="42340646#3"/>
    <trip id="veh131" type="veh_passenger" depart="281.15" departLane="best" departSpeed="max" from="249922988" to="711698638#3"/>
    <trip id="veh132" type="veh_passenger" depart="283.29" departLane="best" departSpeed="max" from="-249165232" to="-237214516#0"/>
    <trip id="veh133" type="veh_passenger" depart="285.44" departLane="best" from="-237214516#0" to="186938877#4"/>
    <trip id="veh134" type="veh_passenger" depart="287.59" departLane="best" from="36989627#2" to="-249165229#4"/>
    <trip id="veh135" type="veh_passenger" depart="289.73" departLane="best" from="311366769#6" to="311366766#0"/>
    <trip id="veh137" type="veh_passenger" depart="294.02" departLane="best" from="-42340647#1" to="-149130368#1"/>
    <trip id="veh138" type="veh_passenger" depart="296.17" departLane="best" from="1073046199" to="-39122228#2"/>
    <trip id="veh139" type="veh_passenger" depart="298.32" departLane="best" from="1046109807#1" to="36964172#3"/>
    <trip id="veh140" type="veh_passenger" depart="300.46" departLane="best" departSpeed="max" from="249343060" to="-36964172#3"/>
    <trip id="veh141" type="veh_passenger" depart="302.61" departLane="best" from="36957009#0" to="186938877#3"/>
    <trip id="veh142" type="veh_passenger" depart="304.76" departLane="best" from="1078784915#0" to="-1117096688#0"/>
    <trip id="veh143" type="veh_passenger" depart="306.90" departLane="best" from="140614083#1" to="-549008048#5"/>
    <trip id="veh144" type="veh_passenger" depart="309.05" departLane="best" from="1078784915#0" to="168324533#4"/>
    <trip id="veh145" type="veh_passenger" depart="311.19" departLane="best" from="42340640#0" to="237214516#0"/>
    <trip id="veh147" type="veh_passenger" depart="315.49" departLane="best" from="-435020851" to="1078784924#0"/>
    <trip id="veh148" type="veh_passenger" depart="317.63" departLane="best" from="36964175#3" to="439667057#1"/>
    <trip id="veh149" type="veh_passenger" depart="319.78" departLane="best" from="549008052#2" to="-311366769#3"/>
    <trip id="veh150" type="veh_passenger" depart="321.92" departLane="best" from="-36963794#2" to="549008048#7"/>
    <trip id="veh151" type="veh_passenger" depart="324.07" departLane="best" from="1046100143#1" to="-249278477#1"/>
    <trip id="veh152" type="veh_passenger" depart="326.22" departLane="best" from="-249487848#0" to="709217977#0"/>
    <trip id="veh153" type="veh_passenger" depart="328.36" departLane="best" from="437406387#4" to="894887827"/>
    <trip id="veh154" type="veh_passenger" depart="330.51" departLane="best" from="39122228#0" to="549008048#1"/>
    <trip id="veh155" type="veh_passenger" depart="332.66" departLane="best" from="-1189727142#2" to="36961382#2"/>
    <trip id="veh156" type="veh_passenger" depart="334.80" departLane="best" from="-549008000#3" to="709217977#10"/>
    <trip id="veh157" type="veh_passenger" depart="336.95" departLane="best" from="-36972186#1" to="439667057#7"/>
    <trip id="veh158" type="veh_passenger" depart="339.09" departLane="best" from="39122228#0" to="36972186#0"/>
    <trip id="veh159" type="veh_passenger" depart="341.24" departLane="best" from="36964166#1" to="-168324533#4"/>
    <trip id="veh160" type="veh_passenger" depart="343.39" departLane="best" departSpeed="max" from="-36957012#1" to="42340642#2"/>
    <trip id="veh161" type="veh_passenger" depart="345.53" departLane="best" from="1134433968#4" to="-42340664#0"/>
    <trip id="veh162" type="veh_passenger" depart="347.68" departLane="best" from="36964175#1" to="-36957009#8"/>
    <trip id="veh163" type="veh_passenger" depart="349.83" departLane="best" from="1189727142#0" to="-288423924"/>
    <trip id="veh164" type="veh_passenger" depart="351.97" departLane="best" departSpeed="max" from="-548823272" to="-439667057#9"/>
    <trip id="veh165" type="veh_passenger" depart="354.12" departLane="best" from="777538792" to="42336836#1"/>
    <trip id="veh166" type="veh_passenger" depart="356.26" departLane="best" from="249487848#2" to="1046109808#0"/>
    <trip id="veh167" type="veh_passenger" depart="358.41" departLane="best" departSpeed="max" from="855615423" to="150031801#0"/>
    <trip id="veh168" type="veh_passenger" depart="360.56" departLane="best" from="549150573#2" to="237214516#0"/>
    <trip id="veh169" type="veh_passenger" depart="362.70" departLane="best" from="778096185" to="-251450284#0"/>
    <trip id="veh170" type="veh_passenger" depart="364.85" departLane="best" from="777538784" to="-36964182"/>
    <trip id="veh171" type="veh_passenger" depart="366.99" departLane="best" departSpeed="max" from="-237256870" to="1134433968#3"/>
    <trip id="veh172" type="veh_passenger" depart="369.14" departLane="best" from="-319023554#0" to="438404111#2"/>
    <trip id="veh173" type="veh_passenger" depart="371.29" departLane="best" from="237207825#2" to="140614070#0"/>
    <trip id="veh174" type="veh_passenger" depart="373.43" departLane="best" departSpeed="max" from="-794939789" to="194355538#1"/>
    <trip id="veh175" type="veh_passenger" depart="375.58" departLane="best" from="-36964171#2" to="36956853#4"/>
    <trip id="veh176" type="veh_passenger" depart="377.73" departLane="best" departSpeed="max" from="-1016548687" to="549118415#3"/>
    <trip id="veh177" type="veh_passenger" depart="379.87" departLane="best" from="140614070#5" to="36957011#1"/>
    <trip id="veh178" type="veh_passenger" depart="382.02" departLane="best" from="36957009#2" to="288875956#6"/>
    <trip id="veh179" type="veh_passenger" depart="384.16" departLane="best" from="-711698638#0" to="-140614038#2"/>
    <trip id="veh180" type="veh_passenger" depart="386.31" departLane="best" departSpeed="max" from="249922988" to="549008035"/>
    <trip id="veh181" type="veh_passenger" depart="388.46" departLane="best" from="438406105#0" to="437406387#2"/>
    <trip id="veh182" type="veh_passenger" depart="390.60" departLane="best" from="311393130#1" to="42340646#4"/>
    <trip id="veh183" type="veh_passenger" depart="392.75" departLane="best" from="-437406387#1" to="1073047160"/>
    <trip id="veh184" type="veh_passenger" depart="394.89" departLane="best" from="1030991932" to="-42340645#0"/>
    <trip id="veh185" type="veh_passenger" depart="397.04" departLane="best" departSpeed="max" from="-249165228" to="1110496031"/>
    <trip id="veh186" type="veh_passenger" depart="399.19" departLane="best" from="709217977#0" to="311366765#5"/>
    <trip id="veh187" type="veh_passenger" depart="401.33" departLane="best" from="549008055#0" to="249165238"/>
    <trip id="veh188" type="veh_passenger" depart="403.48" departLane="best" from="-42340648" to="186938877#10"/>
    <trip id="veh189" type="veh_passenger" depart="405.63" departLane="best" departSpeed="max" from="-1016548687" to="-42340628#0"/>
    <trip id="veh190" type="veh_passenger" depart="407.77" departLane="best" from="1078784916#0" to="194355539#5"/>
    <trip id="veh191" type="veh_passenger" depart="409.92" departLane="best" from="249688232#2" to="-1255589939"/>
    <trip id="veh192" type="veh_passenger" depart="412.06" departLane="best" departSpeed="max" from="1117096688#0" to="-319023527#2"/>
    <trip id="veh193" type="veh_passenger" depart="414.21" departLane="best" departSpeed="max" from="1152543589#0" to="-549008063#0"/>
    <trip id="veh194" type="veh_passenger" depart="416.36" departLane="best" from="36964175#3" to="-249923334#1"/>
    <trip id="veh195" type="veh_passenger" depart="418.50" departLane="best" from="-140617521#0" to="140614074"/>
    <trip id="veh196" type="veh_passenger" depart="420.65" departLane="best" from="249287343#0" to="-549008046#2"/>
    <trip id="veh197" type="veh_passenger" depart="422.79" departLane="best" from="42340609#0" to="36963456#5"/>
    <trip id="veh198" type="veh_passenger" depart="424.94" departLane="best" from="311431630" to="-1152230291#0"/>
    <trip id="veh199" type="veh_passenger" depart="427.09" departLane="best" from="-36963828#0" to="126259614#0"/>
    <trip id="veh200" type="veh_passenger" depart="429.23" departLane="best" from="42340649#1" to="140614047#16"/>
    <trip id="veh201" type="veh_passenger" depart="431.38" departLane="best" departSpeed="max" from="1046119029#0" to="249487845#1"/>
    <trip id="veh202" type="veh_passenger" depart="433.53" departLane="best" from="311366768#1" to="319023546#0"/>
    <trip id="veh203" type="veh_passenger" depart="435.67" departLane="best" from="1256732275" to="-36963211#0"/>
    <trip id="veh204" type="veh_passenger" depart="437.82" departLane="best" departSpeed="max" from="249826562" to="-1110496032#0"/>
    <trip id="veh205" type="veh_passenger" depart="439.96" departLane="best" departSpeed="max" from="36957244#0" to="36964171#2"/>
    <trip id="veh206" type="veh_passenger" depart="442.11" departLane="best" from="-237207825#3" to="1134324426#12"/>
    <trip id="veh207" type="veh_passenger" depart="444.26" departLane="best" departSpeed="max" from="-250189839#1" to="777538785#0"/>
    <trip id="veh208" type="veh_passenger" depart="446.40" departLane="best" from="140609537#1" to="1256732289"/>
    <trip id="veh209" type="veh_passenger" depart="448.55" departLane="best" from="36964165#0" to="437406387#4"/>
    <trip id="veh210" type="veh_passenger" depart="450.69" departLane="best" from="1134433961#2" to="42340613#0"/>
    <trip id="veh211" type="veh_passenger" depart="452.84" departLane="best" departSpeed="max" from="249922999" to="971699943#1"/>
    <trip id="veh212" type="veh_passenger" depart="454.99" departLane="best" from="194355533#1" to="769459831"/>
    <trip id="veh213" type="veh_passenger" depart="457.13" departLane="best" from="-549008046#2" to="249165235"/>
    <trip id="veh214" type="veh_passenger" depart="459.28" departLane="best" from="311393130#0" to="-140614056#2"/>
    <trip id="veh215" type="veh_passenger" depart="461.43" departLane="best" from="42340633" to="186938877#10"/>
    <trip id="veh216" type="veh_passenger" depart="463.57" departLane="best" from="549008051#1" to="36963211#1"/>
    <trip id="veh217" type="veh_passenger" depart="465.72" departLane="best" departSpeed="max" from="1152543589#0" to="-36964171#0"/>
    <trip id="veh218" type="veh_passenger" depart="467.86" departLane="best" departSpeed="max" from="-36963828#1" to="249487855"/>
    <trip id="veh220" type="veh_passenger" depart="472.16" departLane="best" from="249165239#0" to="-36989627#1"/>
    <trip id="veh221" type="veh_passenger" depart="474.30" departLane="best" from="-140616613#3" to="-42340628#0"/>
    <trip id="veh222" type="veh_passenger" depart="476.45" departLane="best" from="36989627#1" to="439667057#0"/>
    <trip id="veh223" type="veh_passenger" depart="478.60" departLane="best" from="140614083#1" to="-249278477#1"/>
    <trip id="veh224" type="veh_passenger" depart="480.74" departLane="best" from="36957697#2" to="-319023535#2"/>
    <trip id="veh225" type="veh_passenger" depart="482.89" departLane="best" from="311366764#4" to="-140609535"/>
    <trip id="veh226" type="veh_passenger" depart="485.03" departLane="best" from="1046100143#2" to="168324530#1"/>
    <trip id="veh227" type="veh_passenger" depart="487.18" departLane="best" departSpeed="max" from="1046119029#0" to="-311366768#0"/>
    <trip id="veh229" type="veh_passenger" depart="491.47" departLane="best" from="186938890#1" to="-319023542#1"/>
    <trip id="veh230" type="veh_passenger" depart="493.62" departLane="best" from="42340661#1" to="-36964166#0"/>
    <trip id="veh231" type="veh_passenger" depart="495.76" departLane="best" from="-792659379#0" to="-1110496032#0"/>
    <trip id="veh232" type="veh_passenger" depart="497.91" departLane="best" from="-549008074#0" to="36963791#1"/>
    <trip id="veh233" type="veh_passenger" depart="500.06" departLane="best" from="42340653#3" to="777538770"/>
    <trip id="veh234" type="veh_passenger" depart="502.20" departLane="best" from="1046119029#1" to="36963454#3"/>
    <trip id="veh235" type="veh_passenger" depart="504.35" departLane="best" departSpeed="max" from="140617520" to="249165229#1"/>
    <trip id="veh236" type="veh_passenger" depart="506.50" departLane="best" departSpeed="max" from="-36957011#1" to="319023556#2"/>
    <trip id="veh237" type="veh_passenger" depart="508.64" departLane="best" from="1078784922#1" to="-1152543589#0"/>
    <trip id="veh238" type="veh_passenger" depart="510.79" departLane="best" from="-549008036" to="-311366766#2"/>
    <trip id="veh239" type="veh_passenger" depart="512.93" departLane="best" from="1043579719" to="-249922988"/>
    <trip id="veh240" type="veh_passenger" depart="515.08" departLane="best" from="1152230290#6" to="-248971812#1"/>
    <trip id="veh241" type="veh_passenger" depart="517.23" departLane="best" from="249165229#0" to="-1152543589#0"/>
    <trip id="veh242" type="veh_passenger" depart="519.37" departLane="best" from="-896552241#2" to="186938890#14"/>